* File: Coin_bank.pex.sp
* Created: Sat Jan 20 20:42:00 2024
* Program "Calibre xRC"
* Version "v2021.3_35.19"
* 
.include "Coin_bank.pex.sp.pex"
.subckt COIN_BANK  CLK STATE0 STORE STATE1 INIT3 INIT2 INIT1 POWER INIT0 S1 VSS
+ VDD M3 M1 M2 M0 S0 S3 S2 MO1 MO3 MO0 MO2
* 
* MO2	MO2
* MO0	MO0
* MO3	MO3
* MO1	MO1
* S2	S2
* S3	S3
* S0	S0
* M0	M0
* M2	M2
* M1	M1
* M3	M3
* VDD	VDD
* VSS	VSS
* S1	S1
* INIT0	INIT0
* POWER	POWER
* INIT1	INIT1
* INIT2	INIT2
* INIT3	INIT3
* STATE1	STATE1
* STORE	STORE
* STATE0	STATE0
* CLK	CLK
M0 N_VSS_M0_d N_6_M0_g N_49_M0_s N_VSS_X24/M0_b N_18 L=1.8e-07 W=3e-06
+ AD=1.395e-12 AS=2.85e-12 PD=9.3e-07 PS=4.9e-06
M1 N_5_M1_d N_49_M1_g N_VSS_M1_s N_VSS_X24/M0_b N_18 L=1.8e-07 W=3e-06
+ AD=1.395e-12 AS=2.7e-12 PD=9.3e-07 PS=4.8e-06
M2 N_49_M2_d N_50_M2_g N_VSS_M2_s N_VSS_X24/M0_b N_18 L=1.8e-07 W=3e-06
+ AD=1.395e-12 AS=1.395e-12 PD=9.3e-07 PS=9.3e-07
M3 N_VSS_M3_d N_26_M3_g N_5_M3_s N_VSS_X24/M0_b N_18 L=1.8e-07 W=3e-06
+ AD=2.82e-12 AS=1.395e-12 PD=4.88e-06 PS=9.3e-07
M4 N_VSS_M4_d N_STATE1_M4_g N_49_M4_s N_VSS_X24/M0_b N_18 L=1.8e-07 W=3e-06
+ AD=2.82e-12 AS=1.395e-12 PD=4.88e-06 PS=9.3e-07
M5 N_68_M5_d N_STORE_M5_g N_VSS_M5_s N_VSS_X24/M0_b N_18 L=1.8e-07 W=9e-06
+ AD=4.185e-12 AS=8.46e-12 PD=9.3e-07 PS=1.088e-05
M6 N_69_M6_d N_11_M6_g N_68_M6_s N_VSS_X24/M0_b N_18 L=1.8e-07 W=9e-06
+ AD=4.185e-12 AS=4.185e-12 PD=9.3e-07 PS=9.3e-07
M7 N_70_M7_d N_STATE0_M7_g N_69_M7_s N_VSS_X24/M0_b N_18 L=1.8e-07 W=9e-06
+ AD=3.915e-12 AS=4.185e-12 PD=8.7e-07 PS=9.3e-07
M8 N_51_M8_d N_POWER_M8_g N_70_M8_s N_VSS_X24/M0_b N_18 L=1.8e-07 W=9e-06
+ AD=6.66e-12 AS=3.915e-12 PD=1.048e-05 PS=8.7e-07
M9 N_71_M9_d N_POWER_M9_g N_29_M9_s N_VSS_X24/M0_b N_18 L=1.8e-07 W=9e-06
+ AD=4.185e-12 AS=8.55e-12 PD=9.3e-07 PS=1.09e-05
M10 N_72_M10_d N_STATE1_M10_g N_71_M10_s N_VSS_X24/M0_b N_18 L=1.8e-07 W=9e-06
+ AD=4.185e-12 AS=4.185e-12 PD=9.3e-07 PS=9.3e-07
M11 N_VSS_M11_d N_6_M11_g N_72_M11_s N_VSS_X24/M0_b N_18 L=1.8e-07 W=9e-06
+ AD=8.46e-12 AS=4.185e-12 PD=1.088e-05 PS=9.3e-07
M12 N_65_M12_d N_6_M12_g N_49_M12_s N_VDD_M12_b P_18 L=1.8e-07 W=6e-06
+ AD=2.79e-12 AS=5.7e-12 PD=9.3e-07 PS=7.9e-06
M13 N_66_M13_d N_49_M13_g N_5_M13_s N_VDD_M13_b P_18 L=1.8e-07 W=6e-06
+ AD=2.79e-12 AS=5.4e-12 PD=9.3e-07 PS=7.8e-06
M14 N_67_M14_d N_50_M14_g N_65_M14_s N_VDD_M12_b P_18 L=1.8e-07 W=6e-06
+ AD=2.79e-12 AS=2.79e-12 PD=9.3e-07 PS=9.3e-07
M15 N_VDD_M15_d N_26_M15_g N_66_M15_s N_VDD_M13_b P_18 L=1.8e-07 W=6e-06
+ AD=5.64e-12 AS=2.79e-12 PD=7.88e-06 PS=9.3e-07
M16 N_VDD_M16_d N_STATE1_M16_g N_67_M16_s N_VDD_M12_b P_18 L=1.8e-07 W=6e-06
+ AD=5.64e-12 AS=2.79e-12 PD=7.88e-06 PS=9.3e-07
M17 N_VDD_M17_d N_STORE_M17_g N_51_M17_s N_VDD_M17_b P_18 L=1.8e-07 W=6e-06
+ AD=2.79e-12 AS=5.64e-12 PD=9.3e-07 PS=7.88e-06
M18 N_51_M18_d N_11_M18_g N_VDD_M18_s N_VDD_M17_b P_18 L=1.8e-07 W=6e-06
+ AD=2.79e-12 AS=2.79e-12 PD=9.3e-07 PS=9.3e-07
M19 N_VDD_M19_d N_STATE0_M19_g N_51_M19_s N_VDD_M17_b P_18 L=1.8e-07 W=6e-06
+ AD=2.61e-12 AS=2.79e-12 PD=8.7e-07 PS=9.3e-07
M20 N_51_M20_d N_POWER_M20_g N_VDD_M20_s N_VDD_M17_b P_18 L=1.8e-07 W=6e-06
+ AD=4.44e-12 AS=2.61e-12 PD=7.48e-06 PS=8.7e-07
M21 N_VDD_M21_d N_POWER_M21_g N_29_M21_s N_VDD_M21_b P_18 L=1.8e-07 W=6e-06
+ AD=2.79e-12 AS=5.7e-12 PD=9.3e-07 PS=7.9e-06
M22 N_29_M22_d N_STATE1_M22_g N_VDD_M22_s N_VDD_M21_b P_18 L=1.8e-07 W=6e-06
+ AD=2.79e-12 AS=2.79e-12 PD=9.3e-07 PS=9.3e-07
M23 N_VDD_M23_d N_6_M23_g N_29_M23_s N_VDD_M21_b P_18 L=1.8e-07 W=6e-06
+ AD=5.64e-12 AS=2.79e-12 PD=7.88e-06 PS=9.3e-07
mX24/M0 N_X24/6_X24/M0_d N_34_X24/M0_g N_VSS_X24/M0_s N_VSS_X24/M0_b N_18
+ L=1.8e-07 W=6e-06 AD=2.79e-12 AS=5.64e-12 PD=9.3e-07 PS=7.88e-06
mX24/M1 N_27_X24/M1_d N_28_X24/M1_g N_X24/6_X24/M1_s N_VSS_X24/M0_b N_18
+ L=1.8e-07 W=6e-06 AD=5.4e-12 AS=2.79e-12 PD=7.8e-06 PS=9.3e-07
mX24/M2 N_27_X24/M2_d N_34_X24/M2_g N_VDD_X24/M2_s N_VDD_X24/M2_b P_18 L=1.8e-07
+ W=6e-06 AD=2.79e-12 AS=5.64e-12 PD=9.3e-07 PS=7.88e-06
mX24/M3 N_VDD_X24/M3_d N_28_X24/M3_g N_27_X24/M3_s N_VDD_X24/M2_b P_18 L=1.8e-07
+ W=6e-06 AD=5.4e-12 AS=2.79e-12 PD=7.8e-06 PS=9.3e-07
mX25/M0 N_X25/6_X25/M0_d N_51_X25/M0_g N_VSS_X25/M0_s N_VSS_X24/M0_b N_18
+ L=1.8e-07 W=6e-06 AD=2.79e-12 AS=5.64e-12 PD=9.3e-07 PS=7.88e-06
mX25/M1 N_31_X25/M1_d N_29_X25/M1_g N_X25/6_X25/M1_s N_VSS_X24/M0_b N_18
+ L=1.8e-07 W=6e-06 AD=5.4e-12 AS=2.79e-12 PD=7.8e-06 PS=9.3e-07
mX25/M2 N_31_X25/M2_d N_51_X25/M2_g N_VDD_X25/M2_s N_VDD_X25/M2_b P_18 L=1.8e-07
+ W=6e-06 AD=2.79e-12 AS=5.64e-12 PD=9.3e-07 PS=7.88e-06
mX25/M3 N_VDD_X25/M3_d N_29_X25/M3_g N_31_X25/M3_s N_VDD_X25/M2_b P_18 L=1.8e-07
+ W=6e-06 AD=5.4e-12 AS=2.79e-12 PD=7.8e-06 PS=9.3e-07
mX26/M0 N_X26/6_X26/M0_d N_28_X26/M0_g N_VSS_X26/M0_s N_VSS_X24/M0_b N_18
+ L=1.8e-07 W=6e-06 AD=2.79e-12 AS=5.64e-12 PD=9.3e-07 PS=7.88e-06
mX26/M1 N_30_X26/M1_d N_STATE0_X26/M1_g N_X26/6_X26/M1_s N_VSS_X24/M0_b N_18
+ L=1.8e-07 W=6e-06 AD=5.4e-12 AS=2.79e-12 PD=7.8e-06 PS=9.3e-07
mX26/M2 N_30_X26/M2_d N_28_X26/M2_g N_VDD_X26/M2_s N_VDD_X26/M2_b P_18 L=1.8e-07
+ W=6e-06 AD=2.79e-12 AS=5.64e-12 PD=9.3e-07 PS=7.88e-06
mX26/M3 N_VDD_X26/M3_d N_STATE0_X26/M3_g N_30_X26/M3_s N_VDD_X26/M2_b P_18
+ L=1.8e-07 W=6e-06 AD=5.4e-12 AS=2.79e-12 PD=7.8e-06 PS=9.3e-07
mX27/M0 N_X27/6_X27/M0_d N_STATE0_X27/M0_g N_VSS_X27/M0_s N_VSS_X24/M0_b N_18
+ L=1.8e-07 W=6e-06 AD=2.79e-12 AS=5.64e-12 PD=9.3e-07 PS=7.88e-06
mX27/M1 N_32_X27/M1_d N_STATE1_X27/M1_g N_X27/6_X27/M1_s N_VSS_X24/M0_b N_18
+ L=1.8e-07 W=6e-06 AD=5.4e-12 AS=2.79e-12 PD=7.8e-06 PS=9.3e-07
mX27/M2 N_32_X27/M2_d N_STATE0_X27/M2_g N_VDD_X27/M2_s N_VDD_X27/M2_b P_18
+ L=1.8e-07 W=6e-06 AD=2.79e-12 AS=5.64e-12 PD=9.3e-07 PS=7.88e-06
mX27/M3 N_VDD_X27/M3_d N_STATE1_X27/M3_g N_32_X27/M3_s N_VDD_X27/M2_b P_18
+ L=1.8e-07 W=6e-06 AD=5.4e-12 AS=2.79e-12 PD=7.8e-06 PS=9.3e-07
mX28/M0 N_X28/6_X28/M0_d N_STATE1_X28/M0_g N_VSS_X28/M0_s N_VSS_X24/M0_b N_18
+ L=1.8e-07 W=6e-06 AD=2.79e-12 AS=5.64e-12 PD=9.3e-07 PS=7.88e-06
mX28/M1 N_33_X28/M1_d N_34_X28/M1_g N_X28/6_X28/M1_s N_VSS_X24/M0_b N_18
+ L=1.8e-07 W=6e-06 AD=5.4e-12 AS=2.79e-12 PD=7.8e-06 PS=9.3e-07
mX28/M2 N_33_X28/M2_d N_STATE1_X28/M2_g N_VDD_X28/M2_s N_VDD_X28/M2_b P_18
+ L=1.8e-07 W=6e-06 AD=2.79e-12 AS=5.64e-12 PD=9.3e-07 PS=7.88e-06
mX28/M3 N_VDD_X28/M3_d N_34_X28/M3_g N_33_X28/M3_s N_VDD_X28/M2_b P_18 L=1.8e-07
+ W=6e-06 AD=5.4e-12 AS=2.79e-12 PD=7.8e-06 PS=9.3e-07
mX29/M0 N_X29/6_X29/M0_d N_S1_X29/M0_g N_VSS_X29/M0_s N_VSS_X24/M0_b N_18
+ L=1.8e-07 W=6e-06 AD=2.79e-12 AS=5.64e-12 PD=9.3e-07 PS=7.88e-06
mX29/M1 N_52_X29/M1_d N_STORE_X29/M1_g N_X29/6_X29/M1_s N_VSS_X24/M0_b N_18
+ L=1.8e-07 W=6e-06 AD=5.4e-12 AS=2.79e-12 PD=7.8e-06 PS=9.3e-07
mX29/M2 N_52_X29/M2_d N_S1_X29/M2_g N_VDD_X29/M2_s N_VDD_X29/M2_b P_18 L=1.8e-07
+ W=6e-06 AD=2.79e-12 AS=5.64e-12 PD=9.3e-07 PS=7.88e-06
mX29/M3 N_VDD_X29/M3_d N_STORE_X29/M3_g N_52_X29/M3_s N_VDD_X29/M2_b P_18
+ L=1.8e-07 W=6e-06 AD=5.4e-12 AS=2.79e-12 PD=7.8e-06 PS=9.3e-07
mX30/X0/M0 N_X30/X0/6_X30/X0/M0_d N_7_X30/X0/M0_g N_VSS_X30/X0/M0_s
+ N_VSS_X24/M0_b N_18 L=1.8e-07 W=6e-06 AD=2.79e-12 AS=5.64e-12 PD=9.3e-07
+ PS=7.88e-06
mX30/X0/M1 N_X30/10_X30/X0/M1_d N_INIT0_X30/X0/M1_g N_X30/X0/6_X30/X0/M1_s
+ N_VSS_X24/M0_b N_18 L=1.8e-07 W=6e-06 AD=5.4e-12 AS=2.79e-12 PD=7.8e-06
+ PS=9.3e-07
mX30/X0/M2 N_X30/10_X30/X0/M2_d N_7_X30/X0/M2_g N_VDD_X30/X0/M2_s
+ N_VDD_X30/X0/M2_b P_18 L=1.8e-07 W=6e-06 AD=2.79e-12 AS=5.64e-12 PD=9.3e-07
+ PS=7.88e-06
mX30/X0/M3 N_VDD_X30/X0/M3_d N_INIT0_X30/X0/M3_g N_X30/10_X30/X0/M3_s
+ N_VDD_X30/X0/M2_b P_18 L=1.8e-07 W=6e-06 AD=5.4e-12 AS=2.79e-12 PD=7.8e-06
+ PS=9.3e-07
mX30/X1/M0 N_X30/X1/6_X30/X1/M0_d N_X30/12_X30/X1/M0_g N_VSS_X30/X1/M0_s
+ N_VSS_X24/M0_b N_18 L=1.8e-07 W=6e-06 AD=2.79e-12 AS=5.64e-12 PD=9.3e-07
+ PS=7.88e-06
mX30/X1/M1 N_37_X30/X1/M1_d N_X30/9_X30/X1/M1_g N_X30/X1/6_X30/X1/M1_s
+ N_VSS_X24/M0_b N_18 L=1.8e-07 W=6e-06 AD=5.4e-12 AS=2.79e-12 PD=7.8e-06
+ PS=9.3e-07
mX30/X1/M2 N_37_X30/X1/M2_d N_X30/12_X30/X1/M2_g N_VDD_X30/X1/M2_s
+ N_VDD_X30/X1/M2_b P_18 L=1.8e-07 W=6e-06 AD=2.79e-12 AS=5.64e-12 PD=9.3e-07
+ PS=7.88e-06
mX30/X1/M3 N_VDD_X30/X1/M3_d N_X30/9_X30/X1/M3_g N_37_X30/X1/M3_s
+ N_VDD_X30/X1/M2_b P_18 L=1.8e-07 W=6e-06 AD=5.4e-12 AS=2.79e-12 PD=7.8e-06
+ PS=9.3e-07
mX30/X2/M0 N_X30/X2/6_X30/X2/M0_d N_X30/10_X30/X2/M0_g N_VSS_X30/X2/M0_s
+ N_VSS_X24/M0_b N_18 L=1.8e-07 W=6e-06 AD=2.79e-12 AS=5.64e-12 PD=9.3e-07
+ PS=7.88e-06
mX30/X2/M1 N_38_X30/X2/M1_d N_X30/8_X30/X2/M1_g N_X30/X2/6_X30/X2/M1_s
+ N_VSS_X24/M0_b N_18 L=1.8e-07 W=6e-06 AD=5.4e-12 AS=2.79e-12 PD=7.8e-06
+ PS=9.3e-07
mX30/X2/M2 N_38_X30/X2/M2_d N_X30/10_X30/X2/M2_g N_VDD_X30/X2/M2_s
+ N_VDD_X30/X2/M2_b P_18 L=1.8e-07 W=6e-06 AD=2.79e-12 AS=5.64e-12 PD=9.3e-07
+ PS=7.88e-06
mX30/X2/M3 N_VDD_X30/X2/M3_d N_X30/8_X30/X2/M3_g N_38_X30/X2/M3_s
+ N_VDD_X30/X2/M2_b P_18 L=1.8e-07 W=6e-06 AD=5.4e-12 AS=2.79e-12 PD=7.8e-06
+ PS=9.3e-07
mX30/X3/M0 N_X30/X3/6_X30/X3/M0_d N_X30/10_X30/X3/M0_g N_VSS_X30/X3/M0_s
+ N_VSS_X24/M0_b N_18 L=1.8e-07 W=6e-06 AD=2.79e-12 AS=5.64e-12 PD=9.3e-07
+ PS=7.88e-06
mX30/X3/M1 N_X30/13_X30/X3/M1_d N_7_X30/X3/M1_g N_X30/X3/6_X30/X3/M1_s
+ N_VSS_X24/M0_b N_18 L=1.8e-07 W=6e-06 AD=5.4e-12 AS=2.79e-12 PD=7.8e-06
+ PS=9.3e-07
mX30/X3/M2 N_X30/13_X30/X3/M2_d N_X30/10_X30/X3/M2_g N_VDD_X30/X3/M2_s
+ N_VDD_X30/X3/M2_b P_18 L=1.8e-07 W=6e-06 AD=2.79e-12 AS=5.64e-12 PD=9.3e-07
+ PS=7.88e-06
mX30/X3/M3 N_VDD_X30/X3/M3_d N_7_X30/X3/M3_g N_X30/13_X30/X3/M3_s
+ N_VDD_X30/X3/M2_b P_18 L=1.8e-07 W=6e-06 AD=5.4e-12 AS=2.79e-12 PD=7.8e-06
+ PS=9.3e-07
mX30/X4/M0 N_X30/X4/6_X30/X4/M0_d N_X30/10_X30/X4/M0_g N_VSS_X30/X4/M0_s
+ N_VSS_X24/M0_b N_18 L=1.8e-07 W=6e-06 AD=2.79e-12 AS=5.64e-12 PD=9.3e-07
+ PS=7.88e-06
mX30/X4/M1 N_X30/11_X30/X4/M1_d N_INIT0_X30/X4/M1_g N_X30/X4/6_X30/X4/M1_s
+ N_VSS_X24/M0_b N_18 L=1.8e-07 W=6e-06 AD=5.4e-12 AS=2.79e-12 PD=7.8e-06
+ PS=9.3e-07
mX30/X4/M2 N_X30/11_X30/X4/M2_d N_X30/10_X30/X4/M2_g N_VDD_X30/X4/M2_s
+ N_VDD_X30/X4/M2_b P_18 L=1.8e-07 W=6e-06 AD=2.79e-12 AS=5.64e-12 PD=9.3e-07
+ PS=7.88e-06
mX30/X4/M3 N_VDD_X30/X4/M3_d N_INIT0_X30/X4/M3_g N_X30/11_X30/X4/M3_s
+ N_VDD_X30/X4/M2_b P_18 L=1.8e-07 W=6e-06 AD=5.4e-12 AS=2.79e-12 PD=7.8e-06
+ PS=9.3e-07
mX30/X5/M0 N_X30/X5/6_X30/X5/M0_d N_X30/13_X30/X5/M0_g N_VSS_X30/X5/M0_s
+ N_VSS_X24/M0_b N_18 L=1.8e-07 W=6e-06 AD=2.79e-12 AS=5.64e-12 PD=9.3e-07
+ PS=7.88e-06
mX30/X5/M1 N_X30/14_X30/X5/M1_d N_X30/11_X30/X5/M1_g N_X30/X5/6_X30/X5/M1_s
+ N_VSS_X24/M0_b N_18 L=1.8e-07 W=6e-06 AD=5.4e-12 AS=2.79e-12 PD=7.8e-06
+ PS=9.3e-07
mX30/X5/M2 N_X30/14_X30/X5/M2_d N_X30/13_X30/X5/M2_g N_VDD_X30/X5/M2_s
+ N_VDD_X30/X5/M2_b P_18 L=1.8e-07 W=6e-06 AD=2.79e-12 AS=5.64e-12 PD=9.3e-07
+ PS=7.88e-06
mX30/X5/M3 N_VDD_X30/X5/M3_d N_X30/11_X30/X5/M3_g N_X30/14_X30/X5/M3_s
+ N_VDD_X30/X5/M2_b P_18 L=1.8e-07 W=6e-06 AD=5.4e-12 AS=2.79e-12 PD=7.8e-06
+ PS=9.3e-07
mX30/X6/M0 N_X30/X6/6_X30/X6/M0_d N_X30/14_X30/X6/M0_g N_VSS_X30/X6/M0_s
+ N_VSS_X24/M0_b N_18 L=1.8e-07 W=6e-06 AD=2.79e-12 AS=5.64e-12 PD=9.3e-07
+ PS=7.88e-06
mX30/X6/M1 N_X30/8_X30/X6/M1_d N_VSS_X30/X6/M1_g N_X30/X6/6_X30/X6/M1_s
+ N_VSS_X24/M0_b N_18 L=1.8e-07 W=6e-06 AD=5.4e-12 AS=2.79e-12 PD=7.8e-06
+ PS=9.3e-07
mX30/X6/M2 N_X30/8_X30/X6/M2_d N_X30/14_X30/X6/M2_g N_VDD_X30/X6/M2_s
+ N_VDD_X30/X6/M2_b P_18 L=1.8e-07 W=6e-06 AD=2.79e-12 AS=5.64e-12 PD=9.3e-07
+ PS=7.88e-06
mX30/X6/M3 N_VDD_X30/X6/M3_d N_VSS_X30/X6/M3_g N_X30/8_X30/X6/M3_s
+ N_VDD_X30/X6/M2_b P_18 L=1.8e-07 W=6e-06 AD=5.4e-12 AS=2.79e-12 PD=7.8e-06
+ PS=9.3e-07
mX30/X7/M0 N_X30/X7/6_X30/X7/M0_d N_X30/14_X30/X7/M0_g N_VSS_X30/X7/M0_s
+ N_VSS_X24/M0_b N_18 L=1.8e-07 W=6e-06 AD=2.79e-12 AS=5.64e-12 PD=9.3e-07
+ PS=7.88e-06
mX30/X7/M1 N_X30/12_X30/X7/M1_d N_X30/8_X30/X7/M1_g N_X30/X7/6_X30/X7/M1_s
+ N_VSS_X24/M0_b N_18 L=1.8e-07 W=6e-06 AD=5.4e-12 AS=2.79e-12 PD=7.8e-06
+ PS=9.3e-07
mX30/X7/M2 N_X30/12_X30/X7/M2_d N_X30/14_X30/X7/M2_g N_VDD_X30/X7/M2_s
+ N_VDD_X30/X7/M2_b P_18 L=1.8e-07 W=6e-06 AD=2.79e-12 AS=5.64e-12 PD=9.3e-07
+ PS=7.88e-06
mX30/X7/M3 N_VDD_X30/X7/M3_d N_X30/8_X30/X7/M3_g N_X30/12_X30/X7/M3_s
+ N_VDD_X30/X7/M2_b P_18 L=1.8e-07 W=6e-06 AD=5.4e-12 AS=2.79e-12 PD=7.8e-06
+ PS=9.3e-07
mX30/X8/M0 N_X30/X8/6_X30/X8/M0_d N_VSS_X30/X8/M0_g N_VSS_X30/X8/M0_s
+ N_VSS_X24/M0_b N_18 L=1.8e-07 W=6e-06 AD=2.79e-12 AS=5.64e-12 PD=9.3e-07
+ PS=7.88e-06
mX30/X8/M1 N_X30/9_X30/X8/M1_d N_X30/8_X30/X8/M1_g N_X30/X8/6_X30/X8/M1_s
+ N_VSS_X24/M0_b N_18 L=1.8e-07 W=6e-06 AD=5.4e-12 AS=2.79e-12 PD=7.8e-06
+ PS=9.3e-07
mX30/X8/M2 N_X30/9_X30/X8/M2_d N_VSS_X30/X8/M2_g N_VDD_X30/X8/M2_s
+ N_VDD_X30/X8/M2_b P_18 L=1.8e-07 W=6e-06 AD=2.79e-12 AS=5.64e-12 PD=9.3e-07
+ PS=7.88e-06
mX30/X8/M3 N_VDD_X30/X8/M3_d N_X30/8_X30/X8/M3_g N_X30/9_X30/X8/M3_s
+ N_VDD_X30/X8/M2_b P_18 L=1.8e-07 W=6e-06 AD=5.4e-12 AS=2.79e-12 PD=7.8e-06
+ PS=9.3e-07
mX31/X0/M0 N_X31/X0/6_X31/X0/M0_d N_23_X31/X0/M0_g N_VSS_X31/X0/M0_s
+ N_VSS_X24/M0_b N_18 L=1.8e-07 W=6e-06 AD=2.79e-12 AS=5.64e-12 PD=9.3e-07
+ PS=7.88e-06
mX31/X0/M1 N_X31/10_X31/X0/M1_d N_INIT1_X31/X0/M1_g N_X31/X0/6_X31/X0/M1_s
+ N_VSS_X24/M0_b N_18 L=1.8e-07 W=6e-06 AD=5.4e-12 AS=2.79e-12 PD=7.8e-06
+ PS=9.3e-07
mX31/X0/M2 N_X31/10_X31/X0/M2_d N_23_X31/X0/M2_g N_VDD_X31/X0/M2_s
+ N_VDD_X31/X0/M2_b P_18 L=1.8e-07 W=6e-06 AD=2.79e-12 AS=5.64e-12 PD=9.3e-07
+ PS=7.88e-06
mX31/X0/M3 N_VDD_X31/X0/M3_d N_INIT1_X31/X0/M3_g N_X31/10_X31/X0/M3_s
+ N_VDD_X31/X0/M2_b P_18 L=1.8e-07 W=6e-06 AD=5.4e-12 AS=2.79e-12 PD=7.8e-06
+ PS=9.3e-07
mX31/X1/M0 N_X31/X1/6_X31/X1/M0_d N_X31/12_X31/X1/M0_g N_VSS_X31/X1/M0_s
+ N_VSS_X24/M0_b N_18 L=1.8e-07 W=6e-06 AD=2.79e-12 AS=5.64e-12 PD=9.3e-07
+ PS=7.88e-06
mX31/X1/M1 N_21_X31/X1/M1_d N_X31/9_X31/X1/M1_g N_X31/X1/6_X31/X1/M1_s
+ N_VSS_X24/M0_b N_18 L=1.8e-07 W=6e-06 AD=5.4e-12 AS=2.79e-12 PD=7.8e-06
+ PS=9.3e-07
mX31/X1/M2 N_21_X31/X1/M2_d N_X31/12_X31/X1/M2_g N_VDD_X31/X1/M2_s
+ N_VDD_X31/X1/M2_b P_18 L=1.8e-07 W=6e-06 AD=2.79e-12 AS=5.64e-12 PD=9.3e-07
+ PS=7.88e-06
mX31/X1/M3 N_VDD_X31/X1/M3_d N_X31/9_X31/X1/M3_g N_21_X31/X1/M3_s
+ N_VDD_X31/X1/M2_b P_18 L=1.8e-07 W=6e-06 AD=5.4e-12 AS=2.79e-12 PD=7.8e-06
+ PS=9.3e-07
mX31/X2/M0 N_X31/X2/6_X31/X2/M0_d N_X31/10_X31/X2/M0_g N_VSS_X31/X2/M0_s
+ N_VSS_X24/M0_b N_18 L=1.8e-07 W=6e-06 AD=2.79e-12 AS=5.64e-12 PD=9.3e-07
+ PS=7.88e-06
mX31/X2/M1 N_39_X31/X2/M1_d N_X31/8_X31/X2/M1_g N_X31/X2/6_X31/X2/M1_s
+ N_VSS_X24/M0_b N_18 L=1.8e-07 W=6e-06 AD=5.4e-12 AS=2.79e-12 PD=7.8e-06
+ PS=9.3e-07
mX31/X2/M2 N_39_X31/X2/M2_d N_X31/10_X31/X2/M2_g N_VDD_X31/X2/M2_s
+ N_VDD_X31/X2/M2_b P_18 L=1.8e-07 W=6e-06 AD=2.79e-12 AS=5.64e-12 PD=9.3e-07
+ PS=7.88e-06
mX31/X2/M3 N_VDD_X31/X2/M3_d N_X31/8_X31/X2/M3_g N_39_X31/X2/M3_s
+ N_VDD_X31/X2/M2_b P_18 L=1.8e-07 W=6e-06 AD=5.4e-12 AS=2.79e-12 PD=7.8e-06
+ PS=9.3e-07
mX31/X3/M0 N_X31/X3/6_X31/X3/M0_d N_X31/10_X31/X3/M0_g N_VSS_X31/X3/M0_s
+ N_VSS_X24/M0_b N_18 L=1.8e-07 W=6e-06 AD=2.79e-12 AS=5.64e-12 PD=9.3e-07
+ PS=7.88e-06
mX31/X3/M1 N_X31/13_X31/X3/M1_d N_23_X31/X3/M1_g N_X31/X3/6_X31/X3/M1_s
+ N_VSS_X24/M0_b N_18 L=1.8e-07 W=6e-06 AD=5.4e-12 AS=2.79e-12 PD=7.8e-06
+ PS=9.3e-07
mX31/X3/M2 N_X31/13_X31/X3/M2_d N_X31/10_X31/X3/M2_g N_VDD_X31/X3/M2_s
+ N_VDD_X31/X3/M2_b P_18 L=1.8e-07 W=6e-06 AD=2.79e-12 AS=5.64e-12 PD=9.3e-07
+ PS=7.88e-06
mX31/X3/M3 N_VDD_X31/X3/M3_d N_23_X31/X3/M3_g N_X31/13_X31/X3/M3_s
+ N_VDD_X31/X3/M2_b P_18 L=1.8e-07 W=6e-06 AD=5.4e-12 AS=2.79e-12 PD=7.8e-06
+ PS=9.3e-07
mX31/X4/M0 N_X31/X4/6_X31/X4/M0_d N_X31/10_X31/X4/M0_g N_VSS_X31/X4/M0_s
+ N_VSS_X24/M0_b N_18 L=1.8e-07 W=6e-06 AD=2.79e-12 AS=5.64e-12 PD=9.3e-07
+ PS=7.88e-06
mX31/X4/M1 N_X31/11_X31/X4/M1_d N_INIT1_X31/X4/M1_g N_X31/X4/6_X31/X4/M1_s
+ N_VSS_X24/M0_b N_18 L=1.8e-07 W=6e-06 AD=5.4e-12 AS=2.79e-12 PD=7.8e-06
+ PS=9.3e-07
mX31/X4/M2 N_X31/11_X31/X4/M2_d N_X31/10_X31/X4/M2_g N_VDD_X31/X4/M2_s
+ N_VDD_X31/X4/M2_b P_18 L=1.8e-07 W=6e-06 AD=2.79e-12 AS=5.64e-12 PD=9.3e-07
+ PS=7.88e-06
mX31/X4/M3 N_VDD_X31/X4/M3_d N_INIT1_X31/X4/M3_g N_X31/11_X31/X4/M3_s
+ N_VDD_X31/X4/M2_b P_18 L=1.8e-07 W=6e-06 AD=5.4e-12 AS=2.79e-12 PD=7.8e-06
+ PS=9.3e-07
mX31/X5/M0 N_X31/X5/6_X31/X5/M0_d N_X31/13_X31/X5/M0_g N_VSS_X31/X5/M0_s
+ N_VSS_X24/M0_b N_18 L=1.8e-07 W=6e-06 AD=2.79e-12 AS=5.64e-12 PD=9.3e-07
+ PS=7.88e-06
mX31/X5/M1 N_X31/14_X31/X5/M1_d N_X31/11_X31/X5/M1_g N_X31/X5/6_X31/X5/M1_s
+ N_VSS_X24/M0_b N_18 L=1.8e-07 W=6e-06 AD=5.4e-12 AS=2.79e-12 PD=7.8e-06
+ PS=9.3e-07
mX31/X5/M2 N_X31/14_X31/X5/M2_d N_X31/13_X31/X5/M2_g N_VDD_X31/X5/M2_s
+ N_VDD_X31/X5/M2_b P_18 L=1.8e-07 W=6e-06 AD=2.79e-12 AS=5.64e-12 PD=9.3e-07
+ PS=7.88e-06
mX31/X5/M3 N_VDD_X31/X5/M3_d N_X31/11_X31/X5/M3_g N_X31/14_X31/X5/M3_s
+ N_VDD_X31/X5/M2_b P_18 L=1.8e-07 W=6e-06 AD=5.4e-12 AS=2.79e-12 PD=7.8e-06
+ PS=9.3e-07
mX31/X6/M0 N_X31/X6/6_X31/X6/M0_d N_X31/14_X31/X6/M0_g N_VSS_X31/X6/M0_s
+ N_VSS_X24/M0_b N_18 L=1.8e-07 W=6e-06 AD=2.79e-12 AS=5.64e-12 PD=9.3e-07
+ PS=7.88e-06
mX31/X6/M1 N_X31/8_X31/X6/M1_d N_38_X31/X6/M1_g N_X31/X6/6_X31/X6/M1_s
+ N_VSS_X24/M0_b N_18 L=1.8e-07 W=6e-06 AD=5.4e-12 AS=2.79e-12 PD=7.8e-06
+ PS=9.3e-07
mX31/X6/M2 N_X31/8_X31/X6/M2_d N_X31/14_X31/X6/M2_g N_VDD_X31/X6/M2_s
+ N_VDD_X31/X6/M2_b P_18 L=1.8e-07 W=6e-06 AD=2.79e-12 AS=5.64e-12 PD=9.3e-07
+ PS=7.88e-06
mX31/X6/M3 N_VDD_X31/X6/M3_d N_38_X31/X6/M3_g N_X31/8_X31/X6/M3_s
+ N_VDD_X31/X6/M2_b P_18 L=1.8e-07 W=6e-06 AD=5.4e-12 AS=2.79e-12 PD=7.8e-06
+ PS=9.3e-07
mX31/X7/M0 N_X31/X7/6_X31/X7/M0_d N_X31/14_X31/X7/M0_g N_VSS_X31/X7/M0_s
+ N_VSS_X24/M0_b N_18 L=1.8e-07 W=6e-06 AD=2.79e-12 AS=5.64e-12 PD=9.3e-07
+ PS=7.88e-06
mX31/X7/M1 N_X31/12_X31/X7/M1_d N_X31/8_X31/X7/M1_g N_X31/X7/6_X31/X7/M1_s
+ N_VSS_X24/M0_b N_18 L=1.8e-07 W=6e-06 AD=5.4e-12 AS=2.79e-12 PD=7.8e-06
+ PS=9.3e-07
mX31/X7/M2 N_X31/12_X31/X7/M2_d N_X31/14_X31/X7/M2_g N_VDD_X31/X7/M2_s
+ N_VDD_X31/X7/M2_b P_18 L=1.8e-07 W=6e-06 AD=2.79e-12 AS=5.64e-12 PD=9.3e-07
+ PS=7.88e-06
mX31/X7/M3 N_VDD_X31/X7/M3_d N_X31/8_X31/X7/M3_g N_X31/12_X31/X7/M3_s
+ N_VDD_X31/X7/M2_b P_18 L=1.8e-07 W=6e-06 AD=5.4e-12 AS=2.79e-12 PD=7.8e-06
+ PS=9.3e-07
mX31/X8/M0 N_X31/X8/6_X31/X8/M0_d N_38_X31/X8/M0_g N_VSS_X31/X8/M0_s
+ N_VSS_X24/M0_b N_18 L=1.8e-07 W=6e-06 AD=2.79e-12 AS=5.64e-12 PD=9.3e-07
+ PS=7.88e-06
mX31/X8/M1 N_X31/9_X31/X8/M1_d N_X31/8_X31/X8/M1_g N_X31/X8/6_X31/X8/M1_s
+ N_VSS_X24/M0_b N_18 L=1.8e-07 W=6e-06 AD=5.4e-12 AS=2.79e-12 PD=7.8e-06
+ PS=9.3e-07
mX31/X8/M2 N_X31/9_X31/X8/M2_d N_38_X31/X8/M2_g N_VDD_X31/X8/M2_s
+ N_VDD_X31/X8/M2_b P_18 L=1.8e-07 W=6e-06 AD=2.79e-12 AS=5.64e-12 PD=9.3e-07
+ PS=7.88e-06
mX31/X8/M3 N_VDD_X31/X8/M3_d N_X31/8_X31/X8/M3_g N_X31/9_X31/X8/M3_s
+ N_VDD_X31/X8/M2_b P_18 L=1.8e-07 W=6e-06 AD=5.4e-12 AS=2.79e-12 PD=7.8e-06
+ PS=9.3e-07
mX32/X0/M0 N_X32/X0/6_X32/X0/M0_d N_20_X32/X0/M0_g N_VSS_X32/X0/M0_s
+ N_VSS_X24/M0_b N_18 L=1.8e-07 W=6e-06 AD=2.79e-12 AS=5.64e-12 PD=9.3e-07
+ PS=7.88e-06
mX32/X0/M1 N_X32/10_X32/X0/M1_d N_INIT2_X32/X0/M1_g N_X32/X0/6_X32/X0/M1_s
+ N_VSS_X24/M0_b N_18 L=1.8e-07 W=6e-06 AD=5.4e-12 AS=2.79e-12 PD=7.8e-06
+ PS=9.3e-07
mX32/X0/M2 N_X32/10_X32/X0/M2_d N_20_X32/X0/M2_g N_VDD_X32/X0/M2_s
+ N_VDD_X32/X0/M2_b P_18 L=1.8e-07 W=6e-06 AD=2.79e-12 AS=5.64e-12 PD=9.3e-07
+ PS=7.88e-06
mX32/X0/M3 N_VDD_X32/X0/M3_d N_INIT2_X32/X0/M3_g N_X32/10_X32/X0/M3_s
+ N_VDD_X32/X0/M2_b P_18 L=1.8e-07 W=6e-06 AD=5.4e-12 AS=2.79e-12 PD=7.8e-06
+ PS=9.3e-07
mX32/X1/M0 N_X32/X1/6_X32/X1/M0_d N_X32/12_X32/X1/M0_g N_VSS_X32/X1/M0_s
+ N_VSS_X24/M0_b N_18 L=1.8e-07 W=6e-06 AD=2.79e-12 AS=5.64e-12 PD=9.3e-07
+ PS=7.88e-06
mX32/X1/M1 N_22_X32/X1/M1_d N_X32/9_X32/X1/M1_g N_X32/X1/6_X32/X1/M1_s
+ N_VSS_X24/M0_b N_18 L=1.8e-07 W=6e-06 AD=5.4e-12 AS=2.79e-12 PD=7.8e-06
+ PS=9.3e-07
mX32/X1/M2 N_22_X32/X1/M2_d N_X32/12_X32/X1/M2_g N_VDD_X32/X1/M2_s
+ N_VDD_X32/X1/M2_b P_18 L=1.8e-07 W=6e-06 AD=2.79e-12 AS=5.64e-12 PD=9.3e-07
+ PS=7.88e-06
mX32/X1/M3 N_VDD_X32/X1/M3_d N_X32/9_X32/X1/M3_g N_22_X32/X1/M3_s
+ N_VDD_X32/X1/M2_b P_18 L=1.8e-07 W=6e-06 AD=5.4e-12 AS=2.79e-12 PD=7.8e-06
+ PS=9.3e-07
mX32/X2/M0 N_X32/X2/6_X32/X2/M0_d N_X32/10_X32/X2/M0_g N_VSS_X32/X2/M0_s
+ N_VSS_X24/M0_b N_18 L=1.8e-07 W=6e-06 AD=2.79e-12 AS=5.64e-12 PD=9.3e-07
+ PS=7.88e-06
mX32/X2/M1 N_40_X32/X2/M1_d N_X32/8_X32/X2/M1_g N_X32/X2/6_X32/X2/M1_s
+ N_VSS_X24/M0_b N_18 L=1.8e-07 W=6e-06 AD=5.4e-12 AS=2.79e-12 PD=7.8e-06
+ PS=9.3e-07
mX32/X2/M2 N_40_X32/X2/M2_d N_X32/10_X32/X2/M2_g N_VDD_X32/X2/M2_s
+ N_VDD_X32/X2/M2_b P_18 L=1.8e-07 W=6e-06 AD=2.79e-12 AS=5.64e-12 PD=9.3e-07
+ PS=7.88e-06
mX32/X2/M3 N_VDD_X32/X2/M3_d N_X32/8_X32/X2/M3_g N_40_X32/X2/M3_s
+ N_VDD_X32/X2/M2_b P_18 L=1.8e-07 W=6e-06 AD=5.4e-12 AS=2.79e-12 PD=7.8e-06
+ PS=9.3e-07
mX32/X3/M0 N_X32/X3/6_X32/X3/M0_d N_X32/10_X32/X3/M0_g N_VSS_X32/X3/M0_s
+ N_VSS_X24/M0_b N_18 L=1.8e-07 W=6e-06 AD=2.79e-12 AS=5.64e-12 PD=9.3e-07
+ PS=7.88e-06
mX32/X3/M1 N_X32/13_X32/X3/M1_d N_20_X32/X3/M1_g N_X32/X3/6_X32/X3/M1_s
+ N_VSS_X24/M0_b N_18 L=1.8e-07 W=6e-06 AD=5.4e-12 AS=2.79e-12 PD=7.8e-06
+ PS=9.3e-07
mX32/X3/M2 N_X32/13_X32/X3/M2_d N_X32/10_X32/X3/M2_g N_VDD_X32/X3/M2_s
+ N_VDD_X32/X3/M2_b P_18 L=1.8e-07 W=6e-06 AD=2.79e-12 AS=5.64e-12 PD=9.3e-07
+ PS=7.88e-06
mX32/X3/M3 N_VDD_X32/X3/M3_d N_20_X32/X3/M3_g N_X32/13_X32/X3/M3_s
+ N_VDD_X32/X3/M2_b P_18 L=1.8e-07 W=6e-06 AD=5.4e-12 AS=2.79e-12 PD=7.8e-06
+ PS=9.3e-07
mX32/X4/M0 N_X32/X4/6_X32/X4/M0_d N_X32/10_X32/X4/M0_g N_VSS_X32/X4/M0_s
+ N_VSS_X24/M0_b N_18 L=1.8e-07 W=6e-06 AD=2.79e-12 AS=5.64e-12 PD=9.3e-07
+ PS=7.88e-06
mX32/X4/M1 N_X32/11_X32/X4/M1_d N_INIT2_X32/X4/M1_g N_X32/X4/6_X32/X4/M1_s
+ N_VSS_X24/M0_b N_18 L=1.8e-07 W=6e-06 AD=5.4e-12 AS=2.79e-12 PD=7.8e-06
+ PS=9.3e-07
mX32/X4/M2 N_X32/11_X32/X4/M2_d N_X32/10_X32/X4/M2_g N_VDD_X32/X4/M2_s
+ N_VDD_X32/X4/M2_b P_18 L=1.8e-07 W=6e-06 AD=2.79e-12 AS=5.64e-12 PD=9.3e-07
+ PS=7.88e-06
mX32/X4/M3 N_VDD_X32/X4/M3_d N_INIT2_X32/X4/M3_g N_X32/11_X32/X4/M3_s
+ N_VDD_X32/X4/M2_b P_18 L=1.8e-07 W=6e-06 AD=5.4e-12 AS=2.79e-12 PD=7.8e-06
+ PS=9.3e-07
mX32/X5/M0 N_X32/X5/6_X32/X5/M0_d N_X32/13_X32/X5/M0_g N_VSS_X32/X5/M0_s
+ N_VSS_X24/M0_b N_18 L=1.8e-07 W=6e-06 AD=2.79e-12 AS=5.64e-12 PD=9.3e-07
+ PS=7.88e-06
mX32/X5/M1 N_X32/14_X32/X5/M1_d N_X32/11_X32/X5/M1_g N_X32/X5/6_X32/X5/M1_s
+ N_VSS_X24/M0_b N_18 L=1.8e-07 W=6e-06 AD=5.4e-12 AS=2.79e-12 PD=7.8e-06
+ PS=9.3e-07
mX32/X5/M2 N_X32/14_X32/X5/M2_d N_X32/13_X32/X5/M2_g N_VDD_X32/X5/M2_s
+ N_VDD_X32/X5/M2_b P_18 L=1.8e-07 W=6e-06 AD=2.79e-12 AS=5.64e-12 PD=9.3e-07
+ PS=7.88e-06
mX32/X5/M3 N_VDD_X32/X5/M3_d N_X32/11_X32/X5/M3_g N_X32/14_X32/X5/M3_s
+ N_VDD_X32/X5/M2_b P_18 L=1.8e-07 W=6e-06 AD=5.4e-12 AS=2.79e-12 PD=7.8e-06
+ PS=9.3e-07
mX32/X6/M0 N_X32/X6/6_X32/X6/M0_d N_X32/14_X32/X6/M0_g N_VSS_X32/X6/M0_s
+ N_VSS_X24/M0_b N_18 L=1.8e-07 W=6e-06 AD=2.79e-12 AS=5.64e-12 PD=9.3e-07
+ PS=7.88e-06
mX32/X6/M1 N_X32/8_X32/X6/M1_d N_39_X32/X6/M1_g N_X32/X6/6_X32/X6/M1_s
+ N_VSS_X24/M0_b N_18 L=1.8e-07 W=6e-06 AD=5.4e-12 AS=2.79e-12 PD=7.8e-06
+ PS=9.3e-07
mX32/X6/M2 N_X32/8_X32/X6/M2_d N_X32/14_X32/X6/M2_g N_VDD_X32/X6/M2_s
+ N_VDD_X32/X6/M2_b P_18 L=1.8e-07 W=6e-06 AD=2.79e-12 AS=5.64e-12 PD=9.3e-07
+ PS=7.88e-06
mX32/X6/M3 N_VDD_X32/X6/M3_d N_39_X32/X6/M3_g N_X32/8_X32/X6/M3_s
+ N_VDD_X32/X6/M2_b P_18 L=1.8e-07 W=6e-06 AD=5.4e-12 AS=2.79e-12 PD=7.8e-06
+ PS=9.3e-07
mX32/X7/M0 N_X32/X7/6_X32/X7/M0_d N_X32/14_X32/X7/M0_g N_VSS_X32/X7/M0_s
+ N_VSS_X24/M0_b N_18 L=1.8e-07 W=6e-06 AD=2.79e-12 AS=5.64e-12 PD=9.3e-07
+ PS=7.88e-06
mX32/X7/M1 N_X32/12_X32/X7/M1_d N_X32/8_X32/X7/M1_g N_X32/X7/6_X32/X7/M1_s
+ N_VSS_X24/M0_b N_18 L=1.8e-07 W=6e-06 AD=5.4e-12 AS=2.79e-12 PD=7.8e-06
+ PS=9.3e-07
mX32/X7/M2 N_X32/12_X32/X7/M2_d N_X32/14_X32/X7/M2_g N_VDD_X32/X7/M2_s
+ N_VDD_X32/X7/M2_b P_18 L=1.8e-07 W=6e-06 AD=2.79e-12 AS=5.64e-12 PD=9.3e-07
+ PS=7.88e-06
mX32/X7/M3 N_VDD_X32/X7/M3_d N_X32/8_X32/X7/M3_g N_X32/12_X32/X7/M3_s
+ N_VDD_X32/X7/M2_b P_18 L=1.8e-07 W=6e-06 AD=5.4e-12 AS=2.79e-12 PD=7.8e-06
+ PS=9.3e-07
mX32/X8/M0 N_X32/X8/6_X32/X8/M0_d N_39_X32/X8/M0_g N_VSS_X32/X8/M0_s
+ N_VSS_X24/M0_b N_18 L=1.8e-07 W=6e-06 AD=2.79e-12 AS=5.64e-12 PD=9.3e-07
+ PS=7.88e-06
mX32/X8/M1 N_X32/9_X32/X8/M1_d N_X32/8_X32/X8/M1_g N_X32/X8/6_X32/X8/M1_s
+ N_VSS_X24/M0_b N_18 L=1.8e-07 W=6e-06 AD=5.4e-12 AS=2.79e-12 PD=7.8e-06
+ PS=9.3e-07
mX32/X8/M2 N_X32/9_X32/X8/M2_d N_39_X32/X8/M2_g N_VDD_X32/X8/M2_s
+ N_VDD_X32/X8/M2_b P_18 L=1.8e-07 W=6e-06 AD=2.79e-12 AS=5.64e-12 PD=9.3e-07
+ PS=7.88e-06
mX32/X8/M3 N_VDD_X32/X8/M3_d N_X32/8_X32/X8/M3_g N_X32/9_X32/X8/M3_s
+ N_VDD_X32/X8/M2_b P_18 L=1.8e-07 W=6e-06 AD=5.4e-12 AS=2.79e-12 PD=7.8e-06
+ PS=9.3e-07
mX33/X0/M0 N_X33/X0/6_X33/X0/M0_d N_14_X33/X0/M0_g N_VSS_X33/X0/M0_s
+ N_VSS_X24/M0_b N_18 L=1.8e-07 W=6e-06 AD=2.79e-12 AS=5.64e-12 PD=9.3e-07
+ PS=7.88e-06
mX33/X0/M1 N_X33/10_X33/X0/M1_d N_INIT3_X33/X0/M1_g N_X33/X0/6_X33/X0/M1_s
+ N_VSS_X24/M0_b N_18 L=1.8e-07 W=6e-06 AD=5.4e-12 AS=2.79e-12 PD=7.8e-06
+ PS=9.3e-07
mX33/X0/M2 N_X33/10_X33/X0/M2_d N_14_X33/X0/M2_g N_VDD_X33/X0/M2_s
+ N_VDD_X33/X0/M2_b P_18 L=1.8e-07 W=6e-06 AD=2.79e-12 AS=5.64e-12 PD=9.3e-07
+ PS=7.88e-06
mX33/X0/M3 N_VDD_X33/X0/M3_d N_INIT3_X33/X0/M3_g N_X33/10_X33/X0/M3_s
+ N_VDD_X33/X0/M2_b P_18 L=1.8e-07 W=6e-06 AD=5.4e-12 AS=2.79e-12 PD=7.8e-06
+ PS=9.3e-07
mX33/X1/M0 N_X33/X1/6_X33/X1/M0_d N_X33/12_X33/X1/M0_g N_VSS_X33/X1/M0_s
+ N_VSS_X24/M0_b N_18 L=1.8e-07 W=6e-06 AD=2.79e-12 AS=5.64e-12 PD=9.3e-07
+ PS=7.88e-06
mX33/X1/M1 N_19_X33/X1/M1_d N_X33/9_X33/X1/M1_g N_X33/X1/6_X33/X1/M1_s
+ N_VSS_X24/M0_b N_18 L=1.8e-07 W=6e-06 AD=5.4e-12 AS=2.79e-12 PD=7.8e-06
+ PS=9.3e-07
mX33/X1/M2 N_19_X33/X1/M2_d N_X33/12_X33/X1/M2_g N_VDD_X33/X1/M2_s
+ N_VDD_X33/X1/M2_b P_18 L=1.8e-07 W=6e-06 AD=2.79e-12 AS=5.64e-12 PD=9.3e-07
+ PS=7.88e-06
mX33/X1/M3 N_VDD_X33/X1/M3_d N_X33/9_X33/X1/M3_g N_19_X33/X1/M3_s
+ N_VDD_X33/X1/M2_b P_18 L=1.8e-07 W=6e-06 AD=5.4e-12 AS=2.79e-12 PD=7.8e-06
+ PS=9.3e-07
mX33/X2/M0 N_X33/X2/6_X33/X2/M0_d N_X33/10_X33/X2/M0_g N_VSS_X33/X2/M0_s
+ N_VSS_X24/M0_b N_18 L=1.8e-07 W=6e-06 AD=2.79e-12 AS=5.64e-12 PD=9.3e-07
+ PS=7.88e-06
mX33/X2/M1 N_53_X33/X2/M1_d N_X33/8_X33/X2/M1_g N_X33/X2/6_X33/X2/M1_s
+ N_VSS_X24/M0_b N_18 L=1.8e-07 W=6e-06 AD=5.4e-12 AS=2.79e-12 PD=7.8e-06
+ PS=9.3e-07
mX33/X2/M2 N_53_X33/X2/M2_d N_X33/10_X33/X2/M2_g N_VDD_X33/X2/M2_s
+ N_VDD_X33/X2/M2_b P_18 L=1.8e-07 W=6e-06 AD=2.79e-12 AS=5.64e-12 PD=9.3e-07
+ PS=7.88e-06
mX33/X2/M3 N_VDD_X33/X2/M3_d N_X33/8_X33/X2/M3_g N_53_X33/X2/M3_s
+ N_VDD_X33/X2/M2_b P_18 L=1.8e-07 W=6e-06 AD=5.4e-12 AS=2.79e-12 PD=7.8e-06
+ PS=9.3e-07
mX33/X3/M0 N_X33/X3/6_X33/X3/M0_d N_X33/10_X33/X3/M0_g N_VSS_X33/X3/M0_s
+ N_VSS_X24/M0_b N_18 L=1.8e-07 W=6e-06 AD=2.79e-12 AS=5.64e-12 PD=9.3e-07
+ PS=7.88e-06
mX33/X3/M1 N_X33/13_X33/X3/M1_d N_14_X33/X3/M1_g N_X33/X3/6_X33/X3/M1_s
+ N_VSS_X24/M0_b N_18 L=1.8e-07 W=6e-06 AD=5.4e-12 AS=2.79e-12 PD=7.8e-06
+ PS=9.3e-07
mX33/X3/M2 N_X33/13_X33/X3/M2_d N_X33/10_X33/X3/M2_g N_VDD_X33/X3/M2_s
+ N_VDD_X33/X3/M2_b P_18 L=1.8e-07 W=6e-06 AD=2.79e-12 AS=5.64e-12 PD=9.3e-07
+ PS=7.88e-06
mX33/X3/M3 N_VDD_X33/X3/M3_d N_14_X33/X3/M3_g N_X33/13_X33/X3/M3_s
+ N_VDD_X33/X3/M2_b P_18 L=1.8e-07 W=6e-06 AD=5.4e-12 AS=2.79e-12 PD=7.8e-06
+ PS=9.3e-07
mX33/X4/M0 N_X33/X4/6_X33/X4/M0_d N_X33/10_X33/X4/M0_g N_VSS_X33/X4/M0_s
+ N_VSS_X24/M0_b N_18 L=1.8e-07 W=6e-06 AD=2.79e-12 AS=5.64e-12 PD=9.3e-07
+ PS=7.88e-06
mX33/X4/M1 N_X33/11_X33/X4/M1_d N_INIT3_X33/X4/M1_g N_X33/X4/6_X33/X4/M1_s
+ N_VSS_X24/M0_b N_18 L=1.8e-07 W=6e-06 AD=5.4e-12 AS=2.79e-12 PD=7.8e-06
+ PS=9.3e-07
mX33/X4/M2 N_X33/11_X33/X4/M2_d N_X33/10_X33/X4/M2_g N_VDD_X33/X4/M2_s
+ N_VDD_X33/X4/M2_b P_18 L=1.8e-07 W=6e-06 AD=2.79e-12 AS=5.64e-12 PD=9.3e-07
+ PS=7.88e-06
mX33/X4/M3 N_VDD_X33/X4/M3_d N_INIT3_X33/X4/M3_g N_X33/11_X33/X4/M3_s
+ N_VDD_X33/X4/M2_b P_18 L=1.8e-07 W=6e-06 AD=5.4e-12 AS=2.79e-12 PD=7.8e-06
+ PS=9.3e-07
mX33/X5/M0 N_X33/X5/6_X33/X5/M0_d N_X33/13_X33/X5/M0_g N_VSS_X33/X5/M0_s
+ N_VSS_X24/M0_b N_18 L=1.8e-07 W=6e-06 AD=2.79e-12 AS=5.64e-12 PD=9.3e-07
+ PS=7.88e-06
mX33/X5/M1 N_X33/14_X33/X5/M1_d N_X33/11_X33/X5/M1_g N_X33/X5/6_X33/X5/M1_s
+ N_VSS_X24/M0_b N_18 L=1.8e-07 W=6e-06 AD=5.4e-12 AS=2.79e-12 PD=7.8e-06
+ PS=9.3e-07
mX33/X5/M2 N_X33/14_X33/X5/M2_d N_X33/13_X33/X5/M2_g N_VDD_X33/X5/M2_s
+ N_VDD_X33/X5/M2_b P_18 L=1.8e-07 W=6e-06 AD=2.79e-12 AS=5.64e-12 PD=9.3e-07
+ PS=7.88e-06
mX33/X5/M3 N_VDD_X33/X5/M3_d N_X33/11_X33/X5/M3_g N_X33/14_X33/X5/M3_s
+ N_VDD_X33/X5/M2_b P_18 L=1.8e-07 W=6e-06 AD=5.4e-12 AS=2.79e-12 PD=7.8e-06
+ PS=9.3e-07
mX33/X6/M0 N_X33/X6/6_X33/X6/M0_d N_X33/14_X33/X6/M0_g N_VSS_X33/X6/M0_s
+ N_VSS_X24/M0_b N_18 L=1.8e-07 W=6e-06 AD=2.79e-12 AS=5.64e-12 PD=9.3e-07
+ PS=7.88e-06
mX33/X6/M1 N_X33/8_X33/X6/M1_d N_40_X33/X6/M1_g N_X33/X6/6_X33/X6/M1_s
+ N_VSS_X24/M0_b N_18 L=1.8e-07 W=6e-06 AD=5.4e-12 AS=2.79e-12 PD=7.8e-06
+ PS=9.3e-07
mX33/X6/M2 N_X33/8_X33/X6/M2_d N_X33/14_X33/X6/M2_g N_VDD_X33/X6/M2_s
+ N_VDD_X33/X6/M2_b P_18 L=1.8e-07 W=6e-06 AD=2.79e-12 AS=5.64e-12 PD=9.3e-07
+ PS=7.88e-06
mX33/X6/M3 N_VDD_X33/X6/M3_d N_40_X33/X6/M3_g N_X33/8_X33/X6/M3_s
+ N_VDD_X33/X6/M2_b P_18 L=1.8e-07 W=6e-06 AD=5.4e-12 AS=2.79e-12 PD=7.8e-06
+ PS=9.3e-07
mX33/X7/M0 N_X33/X7/6_X33/X7/M0_d N_X33/14_X33/X7/M0_g N_VSS_X33/X7/M0_s
+ N_VSS_X24/M0_b N_18 L=1.8e-07 W=6e-06 AD=2.79e-12 AS=5.64e-12 PD=9.3e-07
+ PS=7.88e-06
mX33/X7/M1 N_X33/12_X33/X7/M1_d N_X33/8_X33/X7/M1_g N_X33/X7/6_X33/X7/M1_s
+ N_VSS_X24/M0_b N_18 L=1.8e-07 W=6e-06 AD=5.4e-12 AS=2.79e-12 PD=7.8e-06
+ PS=9.3e-07
mX33/X7/M2 N_X33/12_X33/X7/M2_d N_X33/14_X33/X7/M2_g N_VDD_X33/X7/M2_s
+ N_VDD_X33/X7/M2_b P_18 L=1.8e-07 W=6e-06 AD=2.79e-12 AS=5.64e-12 PD=9.3e-07
+ PS=7.88e-06
mX33/X7/M3 N_VDD_X33/X7/M3_d N_X33/8_X33/X7/M3_g N_X33/12_X33/X7/M3_s
+ N_VDD_X33/X7/M2_b P_18 L=1.8e-07 W=6e-06 AD=5.4e-12 AS=2.79e-12 PD=7.8e-06
+ PS=9.3e-07
mX33/X8/M0 N_X33/X8/6_X33/X8/M0_d N_40_X33/X8/M0_g N_VSS_X33/X8/M0_s
+ N_VSS_X24/M0_b N_18 L=1.8e-07 W=6e-06 AD=2.79e-12 AS=5.64e-12 PD=9.3e-07
+ PS=7.88e-06
mX33/X8/M1 N_X33/9_X33/X8/M1_d N_X33/8_X33/X8/M1_g N_X33/X8/6_X33/X8/M1_s
+ N_VSS_X24/M0_b N_18 L=1.8e-07 W=6e-06 AD=5.4e-12 AS=2.79e-12 PD=7.8e-06
+ PS=9.3e-07
mX33/X8/M2 N_X33/9_X33/X8/M2_d N_40_X33/X8/M2_g N_VDD_X33/X8/M2_s
+ N_VDD_X33/X8/M2_b P_18 L=1.8e-07 W=6e-06 AD=2.79e-12 AS=5.64e-12 PD=9.3e-07
+ PS=7.88e-06
mX33/X8/M3 N_VDD_X33/X8/M3_d N_X33/8_X33/X8/M3_g N_X33/9_X33/X8/M3_s
+ N_VDD_X33/X8/M2_b P_18 L=1.8e-07 W=6e-06 AD=5.4e-12 AS=2.79e-12 PD=7.8e-06
+ PS=9.3e-07
mX34/M0 N_X34/8_X34/M0_d N_35_X34/M0_g N_VSS_X34/M0_s N_VSS_X24/M0_b N_18