* File: Coin_bank.pex.sp.pex
* Created: Sat Jan 20 20:42:00 2024
* Program "Calibre xRC"
* Version "v2021.3_35.19"
* Nominal Temperature: 27C
* Circuit Temperature: 27C
* 
.subckt PM_COIN_BANK%X24/6 1 2
r0 1 2 1.395
.ends

.subckt PM_COIN_BANK%X25/6 1 2
r0 1 2 1.395
.ends

.subckt PM_COIN_BANK%X26/6 1 2
r0 1 2 1.395
.ends

.subckt PM_COIN_BANK%X27/6 1 2
r0 1 2 1.395
.ends

.subckt PM_COIN_BANK%X28/6 1 2
r0 1 2 1.395
.ends

.subckt PM_COIN_BANK%X29/6 1 2
r0 1 2 1.395
.ends

.subckt PM_COIN_BANK%X30/X0/6 1 2
r0 1 2 1.395
.ends

.subckt PM_COIN_BANK%X30/X1/6 1 2
r0 1 2 1.395
.ends

.subckt PM_COIN_BANK%X30/X2/6 1 2
r0 1 2 1.395
.ends

.subckt PM_COIN_BANK%X30/X3/6 1 2
r0 1 2 1.395
.ends

.subckt PM_COIN_BANK%X30/X4/6 1 2
r0 1 2 1.395
.ends

.subckt PM_COIN_BANK%X30/X5/6 1 2
r0 1 2 1.395
.ends

.subckt PM_COIN_BANK%X30/X6/6 1 2
r0 1 2 1.395
.ends

.subckt PM_COIN_BANK%X30/X7/6 1 2
r0 1 2 1.395
.ends

.subckt PM_COIN_BANK%X30/X8/6 1 2
r0 1 2 1.395
.ends

.subckt PM_COIN_BANK%X31/X0/6 1 2
r0 1 2 1.395
.ends

.subckt PM_COIN_BANK%X31/X1/6 1 2
r0 1 2 1.395
.ends

.subckt PM_COIN_BANK%X31/X2/6 1 2
r0 1 2 1.395
.ends

.subckt PM_COIN_BANK%X31/X3/6 1 2
r0 1 2 1.395
.ends

.subckt PM_COIN_BANK%X31/X4/6 1 2
r0 1 2 1.395
.ends

.subckt PM_COIN_BANK%X31/X5/6 1 2
r0 1 2 1.395
.ends

.subckt PM_COIN_BANK%X31/X6/6 1 2
r0 1 2 1.395
.ends

.subckt PM_COIN_BANK%X31/X7/6 1 2
r0 1 2 1.395
.ends

.subckt PM_COIN_BANK%X31/X8/6 1 2
r0 1 2 1.395
.ends

.subckt PM_COIN_BANK%X32/X0/6 1 2
r0 1 2 1.395
.ends

.subckt PM_COIN_BANK%X32/X1/6 1 2
r0 1 2 1.395
.ends

.subckt PM_COIN_BANK%X32/X2/6 1 2
r0 1 2 1.395
.ends

.subckt PM_COIN_BANK%X32/X3/6 1 2
r0 1 2 1.395
.ends

.subckt PM_COIN_BANK%X32/X4/6 1 2
r0 1 2 1.395
.ends

.subckt PM_COIN_BANK%X32/X5/6 1 2
r0 1 2 1.395
.ends

.subckt PM_COIN_BANK%X32/X6/6 1 2
r0 1 2 1.395
.ends

.subckt PM_COIN_BANK%X32/X7/6 1 2
r0 1 2 1.395
.ends

.subckt PM_COIN_BANK%X32/X8/6 1 2
r0 1 2 1.395
.ends

.subckt PM_COIN_BANK%X33/X0/6 1 2
r0 1 2 1.395
.ends

.subckt PM_COIN_BANK%X33/X1/6 1 2
r0 1 2 1.395
.ends

.subckt PM_COIN_BANK%X33/X2/6 1 2
r0 1 2 1.395
.ends

.subckt PM_COIN_BANK%X33/X3/6 1 2
r0 1 2 1.395
.ends

.subckt PM_COIN_BANK%X33/X4/6 1 2
r0 1 2 1.395
.ends

.subckt PM_COIN_BANK%X33/X5/6 1 2
r0 1 2 1.395
.ends

.subckt PM_COIN_BANK%X33/X6/6 1 2
r0 1 2 1.395
.ends

.subckt PM_COIN_BANK%X33/X7/6 1 2
r0 1 2 1.395
.ends

.subckt PM_COIN_BANK%X33/X8/6 1 2
r0 1 2 1.395
.ends

.subckt PM_COIN_BANK%X30/8 5 9 20 21 25 35 39 49 53
c0 131 0 0.793399f
c1 126 0 0.160583f
c2 125 0 0.0497362f
c3 124 0 0.955372f
c4 122 0 0.11635f
c5 119 0 0.0195494f
c6 110 0 0.0866448f
c7 107 0 0.0821106f
c8 100 0 0.0680388f
c9 99 0 0.0975553f
c10 89 0 0.0749673f
c11 87 0 0.0685748f
c12 83 0 0.355697f
c13 79 0 0.0863269f
c14 77 0 0.338309f
c15 76 0 1.42997f
c16 71 0 0.342108f
c17 67 0 0.00965267f
c18 56 0 0.256013f
c19 53 0 0.531242f
c20 49 0 0.318992f
c21 46 0 0.0771394f
c22 42 0 0.255979f
c23 39 0 0.530542f
c24 35 0 0.319055f
c25 18 0 0.30613f
c26 17 0 0.604381f
c27 12 0 0.254481f
c28 9 0 0.531254f
c29 5 0 0.318702f
c30 2 0 0.0807557f
r31 130 131 1.12836
r32 126 130 0.0371559
r33 126 128 0.212908
r34 124 131 0.0365882
r35 124 125 1.55764
r36 120 125 0.0363174
r37 120 122 0.340955
r38 105 119 0.0186876
r39 105 107 0.0693137
r40 101 119 0.0189737
r41 99 119 0.0186876
r42 99 100 0.100196
r43 95 100 0.0251099
r44 87 117 8
r45 85 87 0.0702963
r46 83 128 8
r47 81 110 8
r48 81 83 0.0835714
r49 79 81 0.280561
r50 78 89 0.0331349
r51 77 85 0.0521049
r52 77 78 0.346667
r53 76 79 0.0363174
r54 75 89 0.00285059
r55 75 76 2.5748
r56 73 107 8
r57 71 89 0.0331349
r58 71 73 0.370833
r59 67 91 8
r60 67 122 8
r61 56 58 11.6658
r62 56 57 11.4706
r63 53 58 238.5
r64 49 57 171.5
r65 46 117 0.00137255
r66 46 56 13.2552
r67 42 44 11.6658
r68 42 43 11.4706
r69 39 44 238.5
r70 35 43 171.5
r71 32 110 0.0027451
r72 32 42 13.2552
r73 27 29 0.0285
r74 25 27 0.609
r75 21 23 0.729
r76 20 23 0.666
r77 19 101 0.574933
r78 19 27 16.3327
r79 18 19 0.653333
r80 18 29 5.44423
r81 17 95 0.7364
r82 17 23 5.44423
r83 16 17 0.636767
r84 16 23 5.44423
r85 12 14 11.6658
r86 12 13 11.4706
r87 9 14 238.5
r88 5 13 171.5
r89 2 91 0.00398039
r90 2 12 13.2552
.ends

.subckt PM_COIN_BANK%X30/9 5 9 20 21 25
c0 77 0 0.0195494f
c1 75 0 0.0803095f
c2 68 0 0.0787287f
c3 67 0 0.104415f
c4 61 0 0.0771468f
c5 56 0 3.40855f
c6 50 0 0.712087f
c7 44 0 0.0902187f
c8 42 0 0.200132f
c9 40 0 0.0753806f
c10 38 0 0.979585f
c11 18 0 0.346541f
c12 17 0 0.598342f
c13 12 0 0.251399f
c14 9 0 0.53163f
c15 5 0 0.318643f
r16 73 77 0.0186876
r17 73 75 0.0761765
r18 69 77 0.0189737
r19 67 77 0.0186876
r20 67 68 0.100196
r21 63 68 0.0251099
r22 53 56 3.86326
r23 50 56 8
r24 48 50 1.26282
r25 46 75 8
r26 44 48 0.0366757
r27 44 46 0.104464
r28 42 61 8
r29 40 42 0.22761
r30 38 53 8
r31 36 40 0.0363756
r32 36 38 1.04875
r33 27 29 0.0285
r34 25 27 0.609
r35 21 23 0.729
r36 20 23 0.666
r37 19 69 0.574933
r38 19 27 16.3327
r39 18 19 0.653333
r40 18 29 5.44423
r41 17 63 0.7364
r42 17 23 5.44423
r43 16 17 0.636767
r44 16 23 5.44423
r45 12 14 11.6658
r46 12 13 11.4706
r47 9 14 238.5
r48 5 13 171.5
r49 2 61 0.0147925
r50 2 12 13.2552
.ends

.subckt PM_COIN_BANK%X30/10 6 7 11 25 29 40 44 55 59
c0 112 0 0.116255f
c1 108 0 0.130928f
c2 106 0 0.0273951f
c3 105 0 0.01613f
c4 98 0 0.0608657f
c5 97 0 0.681404f
c6 93 0 0.159605f
c7 92 0 1.18015f
c8 90 0 0.0342102f
c9 89 0 0.0971139f
c10 88 0 0.0088789f
c11 85 0 0.0690976f
c12 80 0 0.0667664f
c13 79 0 0.102329f
c14 70 0 2.06273f
c15 61 0 0.0975916f
c16 59 0 0.505012f
c17 55 0 0.311102f
c18 49 0 0.206251f
c19 48 0 0.0443412f
c20 46 0 0.0988293f
c21 44 0 0.508826f
c22 40 0 0.311224f
c23 34 0 0.204787f
c24 31 0 0.106935f
c25 29 0 0.490494f
c26 25 0 0.312343f
c27 19 0 0.206135f
c28 18 0 0.0547919f
c29 4 0 0.324552f
c30 3 0 0.640504f
r31 103 112 0.192857
r32 101 108 0.191827
r33 97 103 0.0391331
r34 97 98 0.866809
r35 94 106 0.0334766
r36 94 96 0.0651
r37 93 96 0.1701
r38 92 98 0.0396719
r39 91 106 0.00467028
r40 91 92 1.32879
r41 89 106 0.0334766
r42 89 90 0.1092
r43 87 90 0.0416133
r44 87 88 0.0525
r45 86 105 0.0186876
r46 85 88 0.0418373
r47 85 86 0.0796078
r48 81 105 0.0189737
r49 79 105 0.0186876
r50 79 80 0.100196
r51 75 80 0.0251099
r52 73 96 8
r53 70 101 8
r54 70 73 2.4108
r55 57 61 11.1858
r56 57 59 236
r57 53 61 11.1858
r58 53 55 174
r59 49 61 2.40989
r60 49 51 4.78681
r61 48 108 0.0456981
r62 48 51 13.2552
r63 42 46 11.1858
r64 42 44 236
r65 38 46 11.1858
r66 38 40 174
r67 34 46 2.40989
r68 34 36 4.78681
r69 33 93 0.0443192
r70 33 36 13.2552
r71 27 31 11.1858
r72 27 29 236
r73 23 31 11.1858
r74 23 25 174
r75 19 31 2.40989
r76 19 21 4.78681
r77 18 112 0.0462113
r78 18 21 13.2552
r79 13 15 0.0285
r80 11 13 0.609
r81 7 9 0.729
r82 6 9 0.666
r83 5 81 0.574933
r84 5 13 16.3327
r85 4 5 0.653333
r86 4 15 5.44423
r87 3 75 0.7364
r88 3 9 5.44423
r89 2 3 0.636767
r90 2 9 5.44423
.ends

.subckt PM_COIN_BANK%X30/11 6 7 11 21 25
c0 65 0 0.0195494f
c1 58 0 0.0905429f
c2 51 0 0.062757f
c3 50 0 0.10809f
c4 44 0 0.261634f
c5 42 0 0.0437184f
c6 41 0 1.24827f
c7 36 0 0.0877834f
c8 28 0 0.25302f
c9 25 0 0.531365f
c10 21 0 0.318833f
c11 18 0 0.0841184f
c12 4 0 0.391115f
c13 3 0 0.619984f
r14 56 65 0.0186876
r15 56 58 0.077549
r16 52 65 0.0189737
r17 50 65 0.0186876
r18 50 51 0.100196
r19 46 51 0.0251099
r20 44 63 8
r21 42 44 0.51805
r22 41 42 0.0363371
r23 40 41 2.63521
r24 38 58 8
r25 36 40 0.0498882
r26 36 38 0.129122
r27 28 30 11.6658
r28 28 29 11.4706
r29 25 30 238.5
r30 21 29 171.5
r31 18 63 0.00411765
r32 18 28 13.2552
r33 13 15 0.0285
r34 11 13 0.609
r35 7 9 0.729
r36 6 9 0.666
r37 5 52 0.574933
r38 5 13 16.3327
r39 4 5 0.653333
r40 4 15 5.44423
r41 3 46 0.7364
r42 3 9 5.44423
r43 2 3 0.636767
r44 2 9 5.44423
.ends

.subckt PM_COIN_BANK%X30/12 9 13 21 22 26
c0 74 0 0.129732f
c1 65 0 0.048864f
c2 64 0 0.0873319f
c3 56 0 0.0336982f
c4 53 0 0.465436f
c5 51 0 0.042217f
c6 50 0 0.789785f
c7 48 0 1.29873f
c8 43 0 0.156031f
c9 42 0 0.105869f
c10 41 0 1.89134f
c11 40 0 0.0495111f
c12 39 0 0.466642f
c13 38 0 2.63462f
c14 19 0 0.366551f
c15 18 0 0.602965f
c16 15 0 0.0971757f
c17 13 0 0.495098f
c18 9 0 0.311233f
c19 3 0 0.205012f
r20 68 74 0.0189737
r21 65 67 0.0240196
r22 64 74 0.0186876
r23 64 67 0.0761765
r24 60 65 0.0251099
r25 53 67 8
r26 51 53 0.39199
r27 49 51 0.0467926
r28 49 50 1.04419
r29 47 48 1.28345
r30 45 56 8
r31 43 47 0.0363847
r32 43 45 0.148353
r33 41 50 0.0364867
r34 41 42 2.36955
r35 39 48 0.0363213
r36 39 40 0.588611
r37 38 42 0.0379611
r38 37 40 0.0381245
r39 37 38 1.62419
r40 28 30 0.0285
r41 26 28 0.609
r42 22 24 0.729
r43 21 24 0.666
r44 20 68 0.574933
r45 20 28 16.3327
r46 19 20 0.653333
r47 19 30 5.44423
r48 18 60 0.7364
r49 18 24 5.44423
r50 17 18 0.636767
r51 17 24 5.44423
r52 11 15 11.1858
r53 11 13 236
r54 7 15 11.1858
r55 7 9 174
r56 3 15 2.40989
r57 3 5 4.78681
r58 2 56 0.00102941
r59 2 5 13.2552
.ends

.subckt PM_COIN_BANK%X30/13 6 7 11 25 29
c0 48 0 0.0992735f
c1 47 0 0.363496f
c2 42 0 0.0601353f
c3 41 0 0.117747f
c4 31 0 0.103791f
c5 29 0 0.490441f
c6 25 0 0.311225f
c7 19 0 0.207102f
c8 18 0 0.080495f
c9 4 0 0.284003f
c10 3 0 0.619776f
r11 47 49 0.0432154
r12 47 48 0.61775
r13 43 48 0.145706
r14 41 43 0.0202703
r15 41 42 0.100196
r16 37 42 0.0251099
r17 27 31 11.1858
r18 27 29 236
r19 23 31 11.1858
r20 23 25 174
r21 19 31 2.40989
r22 19 21 4.78681
r23 18 49 0.0506761
r24 18 21 13.2552
r25 13 15 0.0285
r26 11 13 0.609
r27 7 9 0.729
r28 6 9 0.666
r29 5 43 0.574933
r30 5 13 16.3327
r31 4 5 0.653333
r32 4 15 5.44423
r33 3 37 0.7364
r34 3 9 5.44423
r35 2 3 0.636767
r36 2 9 5.44423
.ends

.subckt PM_COIN_BANK%X30/14 6 7 11 25 29 40 44
c0 79 0 0.0136948f
c1 78 0 0.0195494f
c2 75 0 0.365178f
c3 74 0 0.0175823f
c4 72 0 0.638887f
c5 69 0 0.102919f
c6 64 0 0.0786138f
c7 63 0 0.094472f
c8 58 0 0.0652716f
c9 57 0 0.488818f
c10 56 0 0.0818808f
c11 55 0 0.152031f
c12 54 0 1.24243f
c13 46 0 0.0989743f
c14 44 0 0.500992f
c15 40 0 0.312196f
c16 34 0 0.215724f
c17 31 0 0.103651f
c18 29 0 0.490494f
c19 25 0 0.31205f
c20 19 0 0.206669f
c21 4 0 0.254379f
c22 3 0 0.5979f
r23 76 79 0.00436359
r24 75 76 0.408113
r25 73 79 0.0338893
r26 73 74 0.0451111
r27 72 79 0.0338893
r28 71 72 1.40467
r29 70 78 0.0186876
r30 69 74 0.0426596
r31 69 70 0.107059
r32 65 78 0.0189737
r33 63 78 0.0186876
r34 63 64 0.100196
r35 59 64 0.0251099
r36 57 71 0.0392212
r37 57 58 0.640244
r38 55 56 0.131667
r39 54 58 0.0397151
r40 53 56 0.0396773
r41 53 54 1.46588
r42 42 46 11.1858
r43 42 44 236
r44 38 46 11.1858
r45 38 40 174
r46 34 46 2.40989
r47 34 36 4.78681
r48 33 75 0.0441166
r49 33 36 13.2552
r50 27 31 11.1858
r51 27 29 236
r52 23 31 11.1858
r53 23 25 174
r54 19 31 2.40989
r55 19 21 4.78681
r56 18 55 0.000111111
r57 18 21 13.2552
r58 13 15 0.0285
r59 11 13 0.609
r60 7 9 0.729
r61 6 9 0.666
r62 5 65 0.574933
r63 5 13 16.3327
r64 4 5 0.653333
r65 4 15 5.44423
r66 3 59 0.7364
r67 3 9 5.44423
r68 2 3 0.636767
r69 2 9 5.44423
.ends

.subckt PM_COIN_BANK%X31/8 5 9 20 21 25 35 39 49 53
c0 131 0 0.793399f
c1 126 0 0.160583f
c2 125 0 0.0497362f
c3 124 0 0.955372f
c4 122 0 0.11635f
c5 119 0 0.0195494f
c6 110 0 0.0866448f
c7 107 0 0.0821106f
c8 100 0 0.0651955f
c9 99 0 0.109988f
c10 89 0 0.0749673f
c11 87 0 0.0685748f
c12 83 0 0.355697f
c13 79 0 0.0863269f
c14 77 0 0.338309f
c15 76 0 1.42997f
c16 71 0 0.356165f
c17 67 0 0.00965267f
c18 56 0 0.256013f
c19 53 0 0.531242f
c20 49 0 0.318992f
c21 46 0 0.0771394f
c22 42 0 0.255979f
c23 39 0 0.530542f
c24 35 0 0.319055f
c25 18 0 0.306793f
c26 17 0 0.619759f
c27 12 0 0.254481f
c28 9 0 0.531251f
c29 5 0 0.318702f
c30 2 0 0.0807557f
r31 130 131 1.12836
r32 126 130 0.0371559
r33 126 128 0.212908
r34 124 131 0.0365882
r35 124 125 1.55764
r36 120 125 0.0363174
r37 120 122 0.340955
r38 105 119 0.0186876
r39 105 107 0.0693137
r40 101 119 0.0189737
r41 99 119 0.0186876
r42 99 100 0.100196
r43 95 100 0.0251099
r44 87 117 8
r45 85 87 0.0702963
r46 83 128 8
r47 81 110 8
r48 81 83 0.0835714
r49 79 81 0.280561
r50 78 89 0.0331349
r51 77 85 0.0521049
r52 77 78 0.346667
r53 76 79 0.0363174
r54 75 89 0.00285059
r55 75 76 2.5748
r56 73 107 8
r57 71 89 0.0331349
r58 71 73 0.370833
r59 67 91 8
r60 67 122 8
r61 56 58 11.6658
r62 56 57 11.4706
r63 53 58 238.5
r64 49 57 171.5
r65 46 117 0.00137255
r66 46 56 13.2552
r67 42 44 11.6658
r68 42 43 11.4706
r69 39 44 238.5
r70 35 43 171.5
r71 32 110 0.0027451
r72 32 42 13.2552
r73 27 29 0.0285
r74 25 27 0.609
r75 21 23 0.729
r76 20 23 0.666
r77 19 101 0.574933
r78 19 27 16.3327
r79 18 19 0.653333
r80 18 29 5.44423
r81 17 95 0.7364
r82 17 23 5.44423
r83 16 17 0.636767
r84 16 23 5.44423
r85 12 14 11.6658
r86 12 13 11.4706
r87 9 14 238.5
r88 5 13 171.5
r89 2 91 0.00398039
r90 2 12 13.2552
.ends

.subckt PM_COIN_BANK%X31/9 5 9 20 21 25
c0 77 0 0.0195494f
c1 75 0 0.0803095f
c2 68 0 0.0787287f
c3 67 0 0.104415f
c4 61 0 0.0771466f
c5 56 0 3.554f
c6 50 0 0.713213f
c7 44 0 0.0902187f
c8 42 0 0.222519f
c9 40 0 0.0839525f
c10 38 0 0.905965f
c11 18 0 0.346541f
c12 17 0 0.598342f
c13 12 0 0.251399f
c14 9 0 0.539854f
c15 5 0 0.320048f
r16 73 77 0.0186876
r17 73 75 0.0761765
r18 69 77 0.0189737
r19 67 77 0.0186876
r20 67 68 0.100196
r21 63 68 0.0251099
r22 53 56 3.86326
r23 50 56 8
r24 48 50 1.26282
r25 46 75 8
r26 44 48 0.0366757
r27 44 46 0.104464
r28 42 61 8
r29 40 42 0.22761
r30 38 53 8
r31 36 40 0.0363756
r32 36 38 1.04875
r33 27 29 0.0285
r34 25 27 0.609
r35 21 23 0.729
r36 20 23 0.666
r37 19 69 0.574933
r38 19 27 16.3327
r39 18 19 0.653333
r40 18 29 5.44423
r41 17 63 0.7364
r42 17 23 5.44423
r43 16 17 0.636767
r44 16 23 5.44423
r45 12 14 11.6658
r46 12 13 11.4706
r47 9 14 238.5
r48 5 13 171.5
r49 2 61 0.0147925
r50 2 12 13.2552
.ends

.subckt PM_COIN_BANK%X31/10 6 7 11 25 29 40 44 55 59
c0 112 0 0.116255f
c1 108 0 0.130928f
c2 106 0 0.0273951f
c3 105 0 0.01613f
c4 98 0 0.0608657f
c5 97 0 0.681404f
c6 93 0 0.159605f
c7 92 0 1.18039f
c8 90 0 0.0342102f
c9 89 0 0.0971139f
c10 88 0 0.0088789f
c11 85 0 0.0690976f
c12 80 0 0.0662827f
c13 79 0 0.103117f
c14 70 0 2.06273f
c15 61 0 0.0975916f
c16 59 0 0.505012f
c17 55 0 0.311102f
c18 49 0 0.206251f
c19 48 0 0.0443412f
c20 46 0 0.0988293f
c21 44 0 0.508826f
c22 40 0 0.311224f
c23 34 0 0.204787f
c24 31 0 0.106935f
c25 29 0 0.490494f
c26 25 0 0.312343f
c27 19 0 0.206135f
c28 18 0 0.0547919f
c29 4 0 0.324552f
c30 3 0 0.625062f
r31 103 112 0.192857
r32 101 108 0.191827
r33 97 103 0.0391331
r34 97 98 0.866809
r35 94 106 0.0334766
r36 94 96 0.0651
r37 93 96 0.1701
r38 92 98 0.0396719
r39 91 106 0.00467028
r40 91 92 1.32879
r41 89 106 0.0334766
r42 89 90 0.1092
r43 87 90 0.0416133
r44 87 88 0.0525
r45 86 105 0.0186876
r46 85 88 0.0418373
r47 85 86 0.0796078
r48 81 105 0.0189737
r49 79 105 0.0186876
r50 79 80 0.100196
r51 75 80 0.0251099
r52 73 96 8
r53 70 101 8
r54 70 73 2.4108
r55 57 61 11.1858
r56 57 59 236
r57 53 61 11.1858
r58 53 55 174
r59 49 61 2.40989
r60 49 51 4.78681
r61 48 108 0.0456981
r62 48 51 13.2552
r63 42 46 11.1858
r64 42 44 236
r65 38 46 11.1858
r66 38 40 174
r67 34 46 2.40989
r68 34 36 4.78681
r69 33 93 0.0443192
r70 33 36 13.2552
r71 27 31 11.1858
r72 27 29 236
r73 23 31 11.1858
r74 23 25 174
r75 19 31 2.40989
r76 19 21 4.78681
r77 18 112 0.0462113
r78 18 21 13.2552
r79 13 15 0.0285
r80 11 13 0.609
r81 7 9 0.729
r82 6 9 0.666
r83 5 81 0.574933
r84 5 13 16.3327
r85 4 5 0.653333
r86 4 15 5.44423
r87 3 75 0.7364
r88 3 9 5.44423
r89 2 3 0.636767
r90 2 9 5.44423
.ends

.subckt PM_COIN_BANK%X31/11 6 7 11 21 25
c0 65 0 0.0195494f
c1 58 0 0.0905438f
c2 51 0 0.062757f
c3 50 0 0.10809f
c4 44 0 0.261634f
c5 42 0 0.0437184f
c6 41 0 1.26029f
c7 36 0 0.104141f
c8 28 0 0.25302f
c9 25 0 0.531365f
c10 21 0 0.318833f
c11 18 0 0.0841184f
c12 4 0 0.391115f
c13 3 0 0.619984f
r14 56 65 0.0186876
r15 56 58 0.077549
r16 52 65 0.0189737
r17 50 65 0.0186876
r18 50 51 0.100196
r19 46 51 0.0251099
r20 44 63 8
r21 42 44 0.51805
r22 41 42 0.0363371
r23 40 41 2.63521
r24 38 58 8
r25 36 40 0.0498882
r26 36 38 0.129122
r27 28 30 11.6658
r28 28 29 11.4706
r29 25 30 238.5
r30 21 29 171.5
r31 18 63 0.00411765
r32 18 28 13.2552
r33 13 15 0.0285
r34 11 13 0.609
r35 7 9 0.729
r36 6 9 0.666
r37 5 52 0.574933
r38 5 13 16.3327
r39 4 5 0.653333
r40 4 15 5.44423
r41 3 46 0.7364
r42 3 9 5.44423
r43 2 3 0.636767
r44 2 9 5.44423
.ends

.subckt PM_COIN_BANK%X31/12 9 13 21 22 26
c0 74 0 0.129732f
c1 65 0 0.048864f
c2 64 0 0.0873319f
c3 56 0 0.0336982f
c4 53 0 0.465436f
c5 51 0 0.042217f
c6 50 0 0.789785f
c7 48 0 1.29873f
c8 43 0 0.156188f
c9 42 0 0.0849337f
c10 41 0 1.85383f
c11 40 0 0.10361f
c12 39 0 0.501727f
c13 38 0 1.71166f
c14 19 0 0.366551f
c15 18 0 0.602965f
c16 15 0 0.0971757f
c17 13 0 0.495098f
c18 9 0 0.312001f
c19 3 0 0.205012f
r20 68 74 0.0189737
r21 65 67 0.0240196
r22 64 74 0.0186876
r23 64 67 0.0761765
r24 60 65 0.0251099
r25 53 67 8
r26 51 53 0.39199
r27 49 51 0.0467926
r28 49 50 1.04419
r29 47 48 1.28345
r30 45 56 8
r31 43 47 0.0363847
r32 43 45 0.148353
r33 41 50 0.0364867
r34 41 42 2.36955
r35 39 48 0.0363213
r36 39 40 0.588611
r37 38 42 0.0379611
r38 37 40 0.0381245
r39 37 38 1.62419
r40 28 30 0.0285
r41 26 28 0.609
r42 22 24 0.729
r43 21 24 0.666
r44 20 68 0.574933
r45 20 28 16.3327
r46 19 20 0.653333
r47 19 30 5.44423
r48 18 60 0.7364
r49 18 24 5.44423
r50 17 18 0.636767
r51 17 24 5.44423
r52 11 15 11.1858
r53 11 13 236
r54 7 15 11.1858
r55 7 9 174
r56 3 15 2.40989
r57 3 5 4.78681
r58 2 56 0.00102941
r59 2 5 13.2552
.ends

.subckt PM_COIN_BANK%X31/13 6 7 11 25 29
c0 48 0 0.0992735f
c1 47 0 0.363496f
c2 42 0 0.0601353f
c3 41 0 0.117747f
c4 31 0 0.103791f
c5 29 0 0.490441f
c6 25 0 0.311225f
c7 19 0 0.207102f
c8 18 0 0.080495f
c9 4 0 0.284003f
c10 3 0 0.619776f
r11 47 49 0.0432154
r12 47 48 0.61775
r13 43 48 0.145706
r14 41 43 0.0202703
r15 41 42 0.100196
r16 37 42 0.0251099
r17 27 31 11.1858
r18 27 29 236
r19 23 31 11.1858
r20 23 25 174
r21 19 31 2.40989
r22 19 21 4.78681
r23 18 49 0.0506761
r24 18 21 13.2552
r25 13 15 0.0285
r26 11 13 0.609
r27 7 9 0.729
r28 6 9 0.666
r29 5 43 0.574933
r30 5 13 16.3327
r31 4 5 0.653333
r32 4 15 5.44423
r33 3 37 0.7364
r34 3 9 5.44423
r35 2 3 0.636767
r36 2 9 5.44423
.ends

.subckt PM_COIN_BANK%X31/14 6 7 11 25 29 40 44
c0 79 0 0.0136948f
c1 78 0 0.0195494f
c2 75 0 0.365178f
c3 74 0 0.0175823f
c4 72 0 0.638887f
c5 69 0 0.102919f
c6 64 0 0.0786138f
c7 63 0 0.094472f
c8 58 0 0.0652716f
c9 57 0 0.488818f
c10 56 0 0.0863609f
c11 55 0 0.117006f
c12 54 0 1.26363f
c13 46 0 0.0989743f
c14 44 0 0.500992f
c15 40 0 0.312196f
c16 34 0 0.215724f
c17 31 0 0.100539f
c18 29 0 0.501428f
c19 25 0 0.311667f
c20 19 0 0.209941f
c21 4 0 0.254379f
c22 3 0 0.5979f
r23 76 79 0.00436359
r24 75 76 0.408113
r25 73 79 0.0338893
r26 73 74 0.0451111
r27 72 79 0.0338893
r28 71 72 1.40467
r29 70 78 0.0186876
r30 69 74 0.0426596
r31 69 70 0.107059
r32 65 78 0.0189737
r33 63 78 0.0186876
r34 63 64 0.100196
r35 59 64 0.0251099
r36 57 71 0.0392212
r37 57 58 0.640244
r38 55 56 0.131667
r39 54 58 0.0397151
r40 53 56 0.0396773
r41 53 54 1.46588
r42 42 46 11.1858
r43 42 44 236
r44 38 46 11.1858
r45 38 40 174
r46 34 46 2.40989
r47 34 36 4.78681
r48 33 75 0.0441166
r49 33 36 13.2552
r50 27 31 11.1858
r51 27 29 236
r52 23 31 11.1858
r53 23 25 174
r54 19 31 2.40989
r55 19 21 4.78681
r56 18 55 0.000111111
r57 18 21 13.2552
r58 13 15 0.0285
r59 11 13 0.609
r60 7 9 0.729
r61 6 9 0.666
r62 5 65 0.574933
r63 5 13 16.3327
r64 4 5 0.653333
r65 4 15 5.44423
r66 3 59 0.7364
r67 3 9 5.44423
r68 2 3 0.636767
r69 2 9 5.44423
.ends

.subckt PM_COIN_BANK%X32/8 5 9 20 21 25 35 39 49 53
c0 131 0 0.793399f
c1 126 0 0.160583f
c2 125 0 0.0497362f
c3 124 0 0.955372f
c4 122 0 0.11635f
c5 119 0 0.0195494f
c6 110 0 0.0866448f
c7 107 0 0.0821106f
c8 100 0 0.0643705f
c9 99 0 0.110452f
c10 89 0 0.0749673f
c11 87 0 0.0685748f
c12 83 0 0.355697f
c13 79 0 0.0863269f
c14 77 0 0.338309f
c15 76 0 1.42997f
c16 71 0 0.356134f
c17 67 0 0.00965267f
c18 56 0 0.256013f
c19 53 0 0.531242f
c20 49 0 0.318992f
c21 46 0 0.0771394f
c22 42 0 0.255979f
c23 39 0 0.530542f
c24 35 0 0.319055f
c25 18 0 0.306793f
c26 17 0 0.62099f
c27 12 0 0.254481f
c28 9 0 0.531254f
c29 5 0 0.318702f
c30 2 0 0.0807557f
r31 130 131 1.12836
r32 126 130 0.0371559
r33 126 128 0.212908
r34 124 131 0.0365882
r35 124 125 1.55764
r36 120 125 0.0363174
r37 120 122 0.340955
r38 105 119 0.0186876
r39 105 107 0.0693137
r40 101 119 0.0189737
r41 99 119 0.0186876
r42 99 100 0.100196
r43 95 100 0.0251099
r44 87 117 8
r45 85 87 0.0702963
r46 83 128 8
r47 81 110 8
r48 81 83 0.0835714
r49 79 81 0.280561
r50 78 89 0.0331349
r51 77 85 0.0521049
r52 77 78 0.346667
r53 76 79 0.0363174
r54 75 89 0.00285059
r55 75 76 2.5748
r56 73 107 8
r57 71 89 0.0331349
r58 71 73 0.370833
r59 67 91 8
r60 67 122 8
r61 56 58 11.6658
r62 56 57 11.4706
r63 53 58 238.5
r64 49 57 171.5
r65 46 117 0.00137255
r66 46 56 13.2552
r67 42 44 11.6658
r68 42 43 11.4706
r69 39 44 238.5
r70 35 43 171.5
r71 32 110 0.0027451
r72 32 42 13.2552
r73 27 29 0.0285
r74 25 27 0.609
r75 21 23 0.729
r76 20 23 0.666
r77 19 101 0.574933
r78 19 27 16.3327
r79 18 19 0.653333
r80 18 29 5.44423
r81 17 95 0.7364
r82 17 23 5.44423
r83 16 17 0.636767
r84 16 23 5.44423
r85 12 14 11.6658
r86 12 13 11.4706
r87 9 14 238.5
r88 5 13 171.5
r89 2 91 0.00398039
r90 2 12 13.2552
.ends

.subckt PM_COIN_BANK%X32/9 5 9 20 21 25
c0 77 0 0.0195494f
c1 75 0 0.0803095f
c2 68 0 0.0787287f
c3 67 0 0.104415f
c4 61 0 0.0771466f
c5 56 0 3.54341f
c6 50 0 0.713331f
c7 44 0 0.0902187f
c8 42 0 0.209065f
c9 40 0 0.0731719f
c10 38 0 0.785637f
c11 18 0 0.346541f
c12 17 0 0.598342f
c13 12 0 0.251399f
c14 9 0 0.537726f
c15 5 0 0.318646f
r16 73 77 0.0186876
r17 73 75 0.0761765
r18 69 77 0.0189737
r19 67 77 0.0186876
r20 67 68 0.100196
r21 63 68 0.0251099
r22 53 56 3.86326
r23 50 56 8
r24 48 50 1.26282
r25 46 75 8
r26 44 48 0.0366757
r27 44 46 0.104464
r28 42 61 8
r29 40 42 0.22761
r30 38 53 8
r31 36 40 0.0363756
r32 36 38 1.04875
r33 27 29 0.0285
r34 25 27 0.609
r35 21 23 0.729
r36 20 23 0.666
r37 19 69 0.574933
r38 19 27 16.3327
r39 18 19 0.653333
r40 18 29 5.44423
r41 17 63 0.7364
r42 17 23 5.44423
r43 16 17 0.636767
r44 16 23 5.44423
r45 12 14 11.6658
r46 12 13 11.4706
r47 9 14 238.5
r48 5 13 171.5
r49 2 61 0.0147925
r50 2 12 13.2552
.ends

.subckt PM_COIN_BANK%X32/10 6 7 11 25 29 40 44 55 59
c0 112 0 0.116255f
c1 108 0 0.130928f
c2 106 0 0.0273951f
c3 105 0 0.01613f
c4 98 0 0.0608657f
c5 97 0 0.681404f
c6 93 0 0.159605f
c7 92 0 1.18014f
c8 90 0 0.0342126f
c9 89 0 0.0971139f
c10 88 0 0.00888408f
c11 85 0 0.0690976f
c12 80 0 0.0662221f
c13 79 0 0.102522f
c14 70 0 2.06273f
c15 61 0 0.0975916f
c16 59 0 0.505012f
c17 55 0 0.311102f
c18 49 0 0.206251f
c19 48 0 0.0443412f
c20 46 0 0.0988293f
c21 44 0 0.508826f
c22 40 0 0.311224f
c23 34 0 0.204787f
c24 31 0 0.106935f
c25 29 0 0.490494f
c26 25 0 0.312343f
c27 19 0 0.206135f
c28 18 0 0.0547919f
c29 4 0 0.317494f
c30 3 0 0.628187f
r31 103 112 0.192857
r32 101 108 0.191827
r33 97 103 0.0391331
r34 97 98 0.866809
r35 94 106 0.0334766
r36 94 96 0.0651
r37 93 96 0.1701
r38 92 98 0.0396719
r39 91 106 0.00467028
r40 91 92 1.32879
r41 89 106 0.0334766
r42 89 90 0.1092
r43 87 90 0.0416133
r44 87 88 0.0525
r45 86 105 0.0186876
r46 85 88 0.0418373
r47 85 86 0.0796078
r48 81 105 0.0189737
r49 79 105 0.0186876
r50 79 80 0.100196
r51 75 80 0.0251099
r52 73 96 8
r53 70 101 8
r54 70 73 2.4108
r55 57 61 11.1858
r56 57 59 236
r57 53 61 11.1858
r58 53 55 174
r59 49 61 2.40989
r60 49 51 4.78681
r61 48 108 0.0456981
r62 48 51 13.2552
r63 42 46 11.1858
r64 42 44 236
r65 38 46 11.1858
r66 38 40 174
r67 34 46 2.40989
r68 34 36 4.78681
r69 33 93 0.0443192
r70 33 36 13.2552
r71 27 31 11.1858
r72 27 29 236
r73 23 31 11.1858
r74 23 25 174
r75 19 31 2.40989
r76 19 21 4.78681
r77 18 112 0.0462113
r78 18 21 13.2552
r79 13 15 0.0285
r80 11 13 0.609
r81 7 9 0.729
r82 6 9 0.666
r83 5 81 0.574933
r84 5 13 16.3327
r85 4 5 0.653333
r86 4 15 5.44423
r87 3 75 0.7364
r88 3 9 5.44423
r89 2 3 0.636767
r90 2 9 5.44423
.ends

.subckt PM_COIN_BANK%X32/11 6 7 11 21 25
c0 65 0 0.0195494f
c1 58 0 0.0905438f
c2 51 0 0.062757f
c3 50 0 0.10809f
c4 44 0 0.261634f
c5 42 0 0.0437184f
c6 41 0 1.2639f
c7 36 0 0.104141f
c8 28 0 0.25302f
c9 25 0 0.531365f
c10 21 0 0.318833f
c11 18 0 0.0841184f
c12 4 0 0.391115f
c13 3 0 0.619984f
r14 56 65 0.0186876
r15 56 58 0.077549
r16 52 65 0.0189737
r17 50 65 0.0186876
r18 50 51 0.100196
r19 46 51 0.0251099
r20 44 63 8
r21 42 44 0.51805
r22 41 42 0.0363371
r23 40 41 2.63521
r24 38 58 8
r25 36 40 0.0498882
r26 36 38 0.129122
r27 28 30 11.6658
r28 28 29 11.4706
r29 25 30 238.5
r30 21 29 171.5
r31 18 63 0.00411765
r32 18 28 13.2552
r33 13 15 0.0285
r34 11 13 0.609
r35 7 9 0.729
r36 6 9 0.666
r37 5 52 0.574933
r38 5 13 16.3327
r39 4 5 0.653333
r40 4 15 5.44423
r41 3 46 0.7364
r42 3 9 5.44423
r43 2 3 0.636767
r44 2 9 5.44423
.ends

.subckt PM_COIN_BANK%X32/12 9 13 21 22 26
c0 74 0 0.129732f
c1 65 0 0.048864f
c2 64 0 0.0873319f
c3 56 0 0.0336982f
c4 53 0 0.465436f
c5 51 0 0.042217f
c6 50 0 0.789785f
c7 48 0 1.29873f
c8 43 0 0.156031f
c9 42 0 0.0952854f
c10 41 0 1.8539f
c11 40 0 0.0948723f
c12 39 0 0.464842f
c13 38 0 2.84449f
c14 19 0 0.366551f
c15 18 0 0.602965f
c16 15 0 0.0971757f
c17 13 0 0.495098f
c18 9 0 0.311233f
c19 3 0 0.205012f
r20 68 74 0.0189737
r21 65 67 0.0240196
r22 64 74 0.0186876
r23 64 67 0.0761765
r24 60 65 0.0251099
r25 53 67 8
r26 51 53 0.39199
r27 49 51 0.0467926
r28 49 50 1.04419
r29 47 48 1.28345
r30 45 56 8
r31 43 47 0.0363847
r32 43 45 0.148353
r33 41 50 0.0364867
r34 41 42 2.36955
r35 39 48 0.0363213
r36 39 40 0.588611
r37 38 42 0.0379611
r38 37 40 0.0381245
r39 37 38 1.62419
r40 28 30 0.0285
r41 26 28 0.609
r42 22 24 0.729
r43 21 24 0.666
r44 20 68 0.574933
r45 20 28 16.3327
r46 19 20 0.653333
r47 19 30 5.44423
r48 18 60 0.7364
r49 18 24 5.44423
r50 17 18 0.636767
r51 17 24 5.44423
r52 11 15 11.1858
r53 11 13 236
r54 7 15 11.1858
r55 7 9 174
r56 3 15 2.40989
r57 3 5 4.78681
r58 2 56 0.00102941
r59 2 5 13.2552
.ends

.subckt PM_COIN_BANK%X32/13 6 7 11 25 29
c0 48 0 0.0992735f
c1 47 0 0.363496f
c2 42 0 0.0601353f
c3 41 0 0.117747f
c4 31 0 0.103791f
c5 29 0 0.490441f
c6 25 0 0.311225f
c7 19 0 0.207102f
c8 18 0 0.080495f
c9 4 0 0.284003f
c10 3 0 0.619776f
r11 47 49 0.0432154
r12 47 48 0.61775
r13 43 48 0.145706
r14 41 43 0.0202703
r15 41 42 0.100196
r16 37 42 0.0251099
r17 27 31 11.1858
r18 27 29 236
r19 23 31 11.1858
r20 23 25 174
r21 19 31 2.40989
r22 19 21 4.78681
r23 18 49 0.0506761
r24 18 21 13.2552
r25 13 15 0.0285
r26 11 13 0.609
r27 7 9 0.729
r28 6 9 0.666
r29 5 43 0.574933
r30 5 13 16.3327
r31 4 5 0.653333
r32 4 15 5.44423
r33 3 37 0.7364
r34 3 9 5.44423
r35 2 3 0.636767
r36 2 9 5.44423
.ends

.subckt PM_COIN_BANK%X32/14 6 7 11 25 29 40 44
c0 79 0 0.0136948f
c1 78 0 0.0195494f
c2 75 0 0.365178f
c3 74 0 0.0175823f
c4 72 0 0.638887f
c5 69 0 0.102919f
c6 64 0 0.0786138f
c7 63 0 0.094472f
c8 58 0 0.0652716f
c9 57 0 0.488818f
c10 56 0 0.0863609f
c11 55 0 0.116095f
c12 54 0 1.26606f
c13 46 0 0.0989743f
c14 44 0 0.500992f
c15 40 0 0.312196f
c16 34 0 0.215724f
c17 31 0 0.100669f
c18 29 0 0.502226f
c19 25 0 0.311667f
c20 19 0 0.209275f
c21 4 0 0.254379f
c22 3 0 0.5979f
r23 76 79 0.00436359
r24 75 76 0.408113
r25 73 79 0.0338893
r26 73 74 0.0451111
r27 72 79 0.0338893
r28 71 72 1.40467
r29 70 78 0.0186876
r30 69 74 0.0426596
r31 69 70 0.107059
r32 65 78 0.0189737
r33 63 78 0.0186876
r34 63 64 0.100196
r35 59 64 0.0251099
r36 57 71 0.0392212
r37 57 58 0.640244
r38 55 56 0.131667
r39 54 58 0.0397151
r40 53 56 0.0396773
r41 53 54 1.46588
r42 42 46 11.1858
r43 42 44 236
r44 38 46 11.1858
r45 38 40 174
r46 34 46 2.40989
r47 34 36 4.78681
r48 33 75 0.0441166
r49 33 36 13.2552
r50 27 31 11.1858
r51 27 29 236
r52 23 31 11.1858
r53 23 25 174
r54 19 31 2.40989
r55 19 21 4.78681
r56 18 55 0.000111111
r57 18 21 13.2552
r58 13 15 0.0285
r59 11 13 0.609
r60 7 9 0.729
r61 6 9 0.666
r62 5 65 0.574933
r63 5 13 16.3327
r64 4 5 0.653333
r65 4 15 5.44423
r66 3 59 0.7364
r67 3 9 5.44423
r68 2 3 0.636767
r69 2 9 5.44423
.ends

.subckt PM_COIN_BANK%X33/8 5 9 20 21 25 35 39 49 53
c0 131 0 0.793399f
c1 126 0 0.160583f
c2 125 0 0.0497362f
c3 124 0 0.955372f
c4 122 0 0.11635f
c5 119 0 0.0195494f
c6 110 0 0.0866448f
c7 107 0 0.0821106f
c8 100 0 0.0654705f
c9 99 0 0.109817f
c10 89 0 0.0749673f
c11 87 0 0.0685748f
c12 83 0 0.355697f
c13 79 0 0.0863269f
c14 77 0 0.338309f
c15 76 0 1.42997f
c16 71 0 0.356175f
c17 67 0 0.00965267f
c18 56 0 0.256013f
c19 53 0 0.531242f
c20 49 0 0.318992f
c21 46 0 0.0771394f
c22 42 0 0.255979f
c23 39 0 0.530542f
c24 35 0 0.319055f
c25 18 0 0.306835f
c26 17 0 0.619349f
c27 12 0 0.254481f
c28 9 0 0.531242f
c29 5 0 0.318702f
c30 2 0 0.0807557f
r31 130 131 1.12836
r32 126 130 0.0371559
r33 126 128 0.212908
r34 124 131 0.0365882
r35 124 125 1.55764
r36 120 125 0.0363174
r37 120 122 0.340955
r38 105 119 0.0186876
r39 105 107 0.0693137
r40 101 119 0.0189737
r41 99 119 0.0186876
r42 99 100 0.100196
r43 95 100 0.0251099
r44 87 117 8
r45 85 87 0.0702963
r46 83 128 8
r47 81 110 8
r48 81 83 0.0835714
r49 79 81 0.280561
r50 78 89 0.0331349
r51 77 85 0.0521049
r52 77 78 0.346667
r53 76 79 0.0363174
r54 75 89 0.00285059
r55 75 76 2.5748
r56 73 107 8
r57 71 89 0.0331349
r58 71 73 0.370833
r59 67 91 8
r60 67 122 8
r61 56 58 11.6658
r62 56 57 11.4706
r63 53 58 238.5
r64 49 57 171.5
r65 46 117 0.00137255
r66 46 56 13.2552
r67 42 44 11.6658
r68 42 43 11.4706
r69 39 44 238.5
r70 35 43 171.5
r71 32 110 0.0027451
r72 32 42 13.2552
r73 27 29 0.0285
r74 25 27 0.609
r75 21 23 0.729
r76 20 23 0.666
r77 19 101 0.574933
r78 19 27 16.3327
r79 18 19 0.653333
r80 18 29 5.44423
r81 17 95 0.7364
r82 17 23 5.44423
r83 16 17 0.636767
r84 16 23 5.44423
r85 12 14 11.6658
r86 12 13 11.4706
r87 9 14 238.5
r88 5 13 171.5
r89 2 91 0.00398039
r90 2 12 13.2552
.ends

.subckt PM_COIN_BANK%X33/9 5 9 20 21 25
c0 77 0 0.0195494f
c1 75 0 0.0803095f
c2 68 0 0.0787287f
c3 67 0 0.104415f
c4 61 0 0.0771466f
c5 56 0 3.53222f
c6 50 0 0.712759f
c7 44 0 0.0902187f
c8 42 0 0.242665f
c9 40 0 0.12215f
c10 38 0 0.780788f
c11 18 0 0.346541f
c12 17 0 0.598342f
c13 12 0 0.251399f
c14 9 0 0.531189f
c15 5 0 0.318646f
r16 73 77 0.0186876
r17 73 75 0.0761765
r18 69 77 0.0189737
r19 67 77 0.0186876
r20 67 68 0.100196
r21 63 68 0.0251099
r22 53 56 3.86326
r23 50 56 8
r24 48 50 1.26282
r25 46 75 8
r26 44 48 0.0366757
r27 44 46 0.104464
r28 42 61 8